<?xml version="1.0" encoding="UTF-8"?>

<!-- generated on 2025-05-08 13:35:43 by Eclipse SUMO polyconvert Version 1.22.0
<polyconvertConfiguration xmlns:xsi="http://www.w3.org/2001/XMLSchema-instance" xsi:noNamespaceSchemaLocation="http://sumo.dlr.de/xsd/polyconvertConfiguration.xsd">

    <input>
        <net-file value="osm.net.xml.gz"/>
        <osm-files value="osm_bbox.osm.xml.gz"/>
        <osm.keep-full-type value="true"/>
        <osm.merge-relations value="1"/>
        <type-file value="${SUMO_HOME}\data\typemap\osmPolyconvert.typ.xml"/>
    </input>

    <output>
        <output-file value="osm.poly.xml.gz"/>
    </output>

    <report>
        <verbose value="true"/>
    </report>

</polyconvertConfiguration>
-->

<additional xmlns:xsi="http://www.w3.org/2001/XMLSchema-instance" xsi:noNamespaceSchemaLocation="http://sumo.dlr.de/xsd/additional_file.xsd">
    <location netOffset="-550731.52,-5165952.09" convBoundary="-112.69,0.00,2017.07,1183.16" origBoundary="27.661494,46.645118,27.689282,46.655810" projParameter="+proj=utm +zone=35 +ellps=WGS84 +datum=WGS84 +units=m +no_defs"/>

    <poly id="173897593" type="waterway.river" color="181,209,209" fill="0" layer="-4.00" shape="1027.289953,1179.292273 1012.830968,1141.518169 1002.097206,1053.046421 1020.351755,978.525511 1054.063198,738.413189 1069.324008,682.069383 1092.640768,643.808601 1136.353681,620.447721 1170.127217,607.647578 1222.251652,604.618251 1273.053057,615.691140 1325.422185,636.612772 1381.671395,639.754678 1427.202082,639.937279 1469.593248,631.513999 1496.510476,602.853988 1503.338731,573.453257 1487.513011,504.561616 1483.159104,438.236398 1496.673662,394.969309 1553.791465,341.445319 1598.114043,342.652183 1641.547282,352.852971 1713.258370,320.738156 1847.290519,203.221318 1965.291199,85.200547 2006.601964,17.962855"/>
    <poly id="223632515" type="landuse.residential" color="235,235,227" fill="1" layer="-3.00" shape="1812.600383,18.658472"/>
    <poly id="253921167" type="natural.water" color="181,209,209" fill="1" layer="-4.00" shape="1880.674689,14.462453 1845.332652,65.272823 1796.716609,118.301420 1729.081453,171.564954 1683.521571,208.663133 1623.163028,247.333382 1557.183616,290.922873 1508.107285,320.735237 1453.168536,369.211105 1408.623130,446.003693 1371.950180,504.573062 1321.296562,537.451511 1266.402355,537.689031 1226.417700,554.535711 1163.129700,588.451211 1080.466316,630.379793 1051.271898,668.712372 1023.524083,755.186756 1014.046704,830.516415 1008.595427,887.022336 1008.608651,899.746532 1011.293245,921.294944 983.860334,1066.691956"/>
    <poly id="256813983" type="landuse.farmland" color="194,194,130" fill="0" layer="-3.00" shape="-111.063123,750.964993 -22.100141,673.034721 9.842865,660.079373 15.426641,624.010090 7.337503,548.597894 -18.633255,508.329215 -5.809870,404.011068 -3.439359,312.362379 27.525507,164.924148 55.542114,50.577078 -112.690195,416.125761"/>
    <poly id="6389570" type="landuse.farmland" color="194,194,130" fill="0" layer="-3.00" shape="2017.070034,48.770062 1986.100668,98.284349 1950.630397,146.203679 1917.125227,188.250612 1881.171741,230.276363 1836.602564,268.671121 1791.693927,302.173634 1752.703319,341.617744 1693.837256,372.443560 1619.255099,399.499593 1571.613129,421.056009 1532.015307,475.187297 1525.572948,527.139099 1515.731163,584.595595 1498.782690,624.121242 1468.340126,648.972385 1429.292543,668.970740 1390.241851,676.967555 1336.758217,685.917886 1280.195650,699.631716 1242.466870,719.442617 1176.988626,757.295206 1141.832221,817.068058 1128.379803,939.792537 1132.087726,1043.350735 1144.295364,1150.615965"/>
    <poly id="85123031" type="landuse.residential" color="235,235,227" fill="1" layer="-3.00" shape="864.476769,989.602252 958.487527,877.391130 974.334145,885.539310 1008.595427,887.022336 1014.046704,830.516415 1023.524083,755.186756 1051.271898,668.712372 1080.466316,630.379793 1163.129700,588.451211 1226.417700,554.535711 1266.402355,537.689031 1166.373293,480.118860 1279.940099,222.726433 1446.326276,71.252747 1400.800527,25.741278 965.764811,64.335293 921.943766,266.100133 938.976003,314.697542 933.991617,342.658892 773.171605,346.617070 698.134292,467.883057 587.260239,421.376160 563.717780,454.069454 523.008447,543.736227 668.455052,600.982592 606.329320,761.254308 471.812254,723.993956 466.732108,754.510782 459.256141,859.906991 452.213061,968.418460 451.747513,1077.319179 458.210485,1181.278027"/>
    <poly id="86577247" type="landuse.forest" color="140,196,107" fill="1" layer="-3.00" shape="50.358004,1173.827619 55.393956,1102.859817 44.861639,1017.869981 33.415274,941.429266 29.375478,875.941402 19.391588,807.514201 20.418519,740.068730 9.842865,660.079373 -22.100141,673.034721 -111.063123,750.964993"/>
    <poly id="87171228" type="landuse.meadow" color="194,194,130" fill="0" layer="-3.00" shape="983.860334,1066.691956 1011.293245,921.294944 1008.608651,899.746532 1008.595427,887.022336 974.334145,885.539310 958.487527,877.391130 864.476769,989.602252"/>
    <poly id="87512896" type="landuse.farmland" color="194,194,130" fill="0" layer="-3.00" shape="-112.690195,416.125761 55.542114,50.577078 27.525507,164.924148 -3.439359,312.362379 -5.809870,404.011068 -18.633255,508.329215 7.337503,548.597894 15.426641,624.010090 9.842865,660.079373 20.418519,740.068730 19.391588,807.514201 29.375478,875.941402 33.415274,941.429266 44.861639,1017.869981 55.393956,1102.859817 50.358004,1173.827619 191.333351,1179.350900 198.833452,1124.850828 222.771872,1071.934352 242.282680,1026.870554 263.285152,977.374351 285.231534,924.885774 309.274636,877.860259 325.315865,826.988737 358.277788,766.036935 377.759766,697.525495 385.780316,627.027767 395.199124,554.097115 406.195863,484.624807 424.208333,418.101349 461.152573,357.183887 510.253461,306.704769 519.670459,261.222695 536.630436,219.694216 565.193211,163.706834 601.698058,118.788774 651.138094,82.760183 701.126730,45.292017 758.582428,11.777464"/>
    <poly id="87654744" type="landuse.farmland" color="194,194,130" fill="0" layer="-3.00" shape="458.210485,1181.278027 451.747513,1077.319179 452.213061,968.418460 459.256141,859.906991 466.732108,754.510782 471.812254,723.993956 606.329320,761.254308 668.455052,600.982592 523.008447,543.736227 563.717780,454.069454 587.260239,421.376160 698.134292,467.883057 773.171605,346.617070 933.991617,342.658892 938.976003,314.697542 921.943766,266.100133 965.764811,64.335293 1400.800527,25.741278 1446.326276,71.252747 1279.940099,222.726433 1166.373293,480.118860 1266.402355,537.689031 1321.296562,537.451511 1371.950180,504.573062 1408.623130,446.003693 1453.168536,369.211105 1508.107285,320.735237 1557.183616,290.922873 1623.163028,247.333382 1683.521571,208.663133 1729.081453,171.564954 1796.716609,118.301420 1845.332652,65.272823 1880.674689,14.462453 758.582428,11.777464 701.126730,45.292017 651.138094,82.760183 601.698058,118.788774 565.193211,163.706834 536.630436,219.694216 519.670459,261.222695 510.253461,306.704769 461.152573,357.183887 424.208333,418.101349 406.195863,484.624807 395.199124,554.097115 385.780316,627.027767 377.759766,697.525495 358.277788,766.036935 325.315865,826.988737 309.274636,877.860259 285.231534,924.885774 263.285152,977.374351 242.282680,1026.870554 222.771872,1071.934352 198.833452,1124.850828 191.333351,1179.350900"/>
    <poly id="88352931" type="natural.water" color="181,209,209" fill="1" layer="-4.00" shape="1144.295364,1150.615965 1132.087726,1043.350735 1128.379803,939.792537 1141.832221,817.068058 1176.988626,757.295206 1242.466870,719.442617 1280.195650,699.631716 1336.758217,685.917886 1390.241851,676.967555 1429.292543,668.970740 1468.340126,648.972385 1498.782690,624.121242 1515.731163,584.595595 1525.572948,527.139099 1532.015307,475.187297 1571.613129,421.056009 1619.255099,399.499593 1693.837256,372.443560 1752.703319,341.617744 1791.693927,302.173634 1836.602564,268.671121 1881.171741,230.276363 1917.125227,188.250612 1950.630397,146.203679 1986.100668,98.284349 2017.070034,48.770062"/>
    <poi id="4707778189" type="shop.convenience" color="237,199,255" layer="4.00" x="1192.34" y="502.52"/>
</additional>
