<?xml version="1.0" encoding="UTF-8"?>

<!-- generated on 2025-05-22 22:11:17 by Eclipse SUMO netedit Version 1.22.0
<neteditConfiguration xmlns:xsi="http://www.w3.org/2001/XMLSchema-instance" xsi:noNamespaceSchemaLocation="http://sumo.dlr.de/xsd/neteditConfiguration.xsd">

    <input>
        <sumo-net-file value="E:\licenta\oras-mic\2025-05-08-13-35-40\osm.net.xml"/>
    </input>

    <output>
        <output-file value="E:\licenta\oras-mic\2025-05-08-13-35-40\osm.net.xml"/>
        <output.street-names value="true"/>
    </output>

    <processing>
        <geometry.min-radius.fix.railways value="false"/>
        <geometry.max-grade.fix value="false"/>
        <offset.disable-normalization value="true"/>
        <lefthand value="0"/>
    </processing>

    <junctions>
        <no-turnarounds value="true"/>
        <junctions.corner-detail value="5"/>
        <junctions.limit-turn-speed value="5.50"/>
        <rectangular-lane-cut value="0"/>
    </junctions>

    <pedestrian>
        <walkingareas value="0"/>
    </pedestrian>

</neteditConfiguration>
-->

<net version="1.20" junctionCornerDetail="5" limitTurnSpeed="5.50" xmlns:xsi="http://www.w3.org/2001/XMLSchema-instance" xsi:noNamespaceSchemaLocation="http://sumo.dlr.de/xsd/net_file.xsd">

    <location netOffset="-550731.52,-5165952.09" convBoundary="0.00,0.00,1425.79,1183.15" origBoundary="27.662961,46.645118,27.689142,46.655810" projParameter="+proj=utm +zone=35 +ellps=WGS84 +datum=WGS84 +units=m +no_defs"/>

    <type id="highway.residential" priority="3" numLanes="1" speed="13.89" disallow="tram rail_urban rail rail_electric rail_fast ship container cable_car subway aircraft wheelchair scooter drone" oneway="0"/>
    <type id="highway.tertiary" priority="10" numLanes="1" speed="22.22" disallow="tram rail_urban rail rail_electric rail_fast ship container cable_car subway aircraft wheelchair scooter drone" oneway="0"/>

    <edge id=":1584178959_0" function="internal">
        <lane id=":1584178959_0_0" index="0" disallow="tram rail_urban rail rail_electric rail_fast ship container cable_car subway aircraft wheelchair scooter drone" speed="13.89" length="14.12" shape="982.40,464.15 980.82,467.36 979.88,470.65 979.33,474.09 978.92,477.70"/>
    </edge>
    <edge id=":1584178959_1" function="internal">
        <lane id=":1584178959_1_0" index="0" disallow="tram rail_urban rail rail_electric rail_fast ship container cable_car subway aircraft wheelchair scooter drone" speed="18.05" length="15.55" shape="982.40,464.15 980.01,467.09 977.01,469.62 973.69,471.80 970.32,473.71"/>
    </edge>
    <edge id=":1584178959_2" function="internal">
        <lane id=":1584178959_2_0" index="0" disallow="tram rail_urban rail rail_electric rail_fast ship container cable_car subway aircraft wheelchair scooter drone" speed="17.74" length="13.96" shape="968.78,470.91 971.96,469.17 974.88,467.37 977.48,465.22 979.68,462.45"/>
    </edge>
    <edge id=":1584178959_3" function="internal">
        <lane id=":1584178959_3_0" index="0" disallow="tram rail_urban rail rail_electric rail_fast ship container cable_car subway aircraft wheelchair scooter drone" speed="7.38" length="17.52" shape="968.78,470.91 973.78,468.93 977.13,469.41 978.85,472.33 978.92,477.70"/>
    </edge>
    <edge id=":1584178959_4" function="internal">
        <lane id=":1584178959_4_0" index="0" disallow="tram rail_urban rail rail_electric rail_fast ship container cable_car subway aircraft wheelchair scooter drone" speed="5.58" length="9.36" shape="975.74,477.34 975.70,474.47 974.79,472.91 972.99,472.66 970.32,473.71"/>
    </edge>
    <edge id=":1584178959_5" function="internal">
        <lane id=":1584178959_5_0" index="0" disallow="tram rail_urban rail rail_electric rail_fast ship container cable_car subway aircraft wheelchair scooter drone" speed="13.89" length="15.52" shape="975.74,477.34 976.22,473.51 976.93,469.62 978.03,465.87 979.68,462.45"/>
    </edge>
    <edge id=":2325098867_0" function="internal">
        <lane id=":2325098867_0_0" index="0" speed="13.89" length="13.68" shape="1025.47,400.24 1022.77,402.55 1020.36,404.82 1018.18,407.28 1016.14,410.17"/>
    </edge>
    <edge id=":2325098867_1" function="internal">
        <lane id=":2325098867_1_0" index="0" disallow="tram rail_urban rail rail_electric rail_fast ship container cable_car subway aircraft wheelchair scooter drone" speed="7.50" length="15.99" shape="1025.47,400.24 1021.50,402.72 1018.19,402.97 1015.52,400.99 1013.50,396.79"/>
    </edge>
    <edge id=":2325098867_2" function="internal">
        <lane id=":2325098867_2_0" index="0" disallow="tram rail_urban rail rail_electric rail_fast ship container cable_car subway aircraft wheelchair scooter drone" speed="5.82" length="9.13" shape="1016.61,395.80 1017.74,398.21 1019.26,399.34 1021.15,399.20 1023.41,397.79"/>
    </edge>
    <edge id=":2325098867_3" function="internal">
        <lane id=":2325098867_3_0" index="0" disallow="tram rail_urban rail rail_electric rail_fast ship container cable_car subway aircraft wheelchair scooter drone" speed="11.85" length="14.80" shape="1016.61,395.80 1017.64,400.11 1017.90,403.94 1017.41,407.29 1016.14,410.17"/>
    </edge>
    <edge id=":2325098867_4" function="internal">
        <lane id=":2325098867_4_0" index="0" disallow="tram rail_urban rail rail_electric rail_fast ship container cable_car subway aircraft wheelchair scooter drone" speed="10.66" length="12.02" shape="1013.43,408.47 1014.37,406.23 1014.70,403.54 1014.41,400.39 1013.50,396.79"/>
    </edge>
    <edge id=":2325098867_5" function="internal">
        <lane id=":2325098867_5_0" index="0" speed="13.89" length="14.68" shape="1013.43,408.47 1015.57,405.46 1017.98,402.74 1020.61,400.21 1023.41,397.79"/>
    </edge>
    <edge id=":2325098875_0" function="internal">
        <lane id=":2325098875_0_0" index="0" disallow="tram rail_urban rail rail_electric rail_fast ship container cable_car subway aircraft wheelchair scooter drone" speed="10.50" length="11.28" shape="932.00,491.76 929.90,492.89 928.01,494.66 926.36,497.08 924.92,500.13"/>
    </edge>
    <edge id=":2325098875_1" function="internal">
        <lane id=":2325098875_1_0" index="0" disallow="tram rail_urban rail rail_electric rail_fast ship container cable_car subway aircraft wheelchair scooter drone" speed="17.84" length="13.97" shape="932.00,491.76 928.56,492.70 925.20,493.04 921.79,492.91 918.21,492.45"/>
    </edge>
    <edge id=":2325098875_2" function="internal">
        <lane id=":2325098875_2_0" index="0" disallow="tram rail_urban rail rail_electric rail_fast ship container cable_car subway aircraft wheelchair scooter drone" speed="16.81" length="12.38" shape="918.71,489.29 922.04,489.78 924.90,489.96 927.72,489.67 930.91,488.75"/>
    </edge>
    <edge id=":2325098875_3" function="internal">
        <lane id=":2325098875_3_0" index="0" disallow="tram rail_urban rail rail_electric rail_fast ship container cable_car subway aircraft wheelchair scooter drone" speed="7.67" length="3.99" shape="918.71,489.29 922.52,490.47"/>
    </edge>
    <edge id=":2325098875_6" function="internal">
        <lane id=":2325098875_6_0" index="0" disallow="tram rail_urban rail rail_electric rail_fast ship container cable_car subway aircraft wheelchair scooter drone" speed="7.67" length="11.09" shape="922.52,490.47 922.79,490.55 925.19,492.78 925.90,495.97 924.92,500.13"/>
    </edge>
    <edge id=":2325098875_4" function="internal">
        <lane id=":2325098875_4_0" index="0" disallow="tram rail_urban rail rail_electric rail_fast ship container cable_car subway aircraft wheelchair scooter drone" speed="6.09" length="9.06" shape="921.94,498.97 922.53,496.47 922.10,494.55 920.66,493.21 918.21,492.45"/>
    </edge>
    <edge id=":2325098875_5" function="internal">
        <lane id=":2325098875_5_0" index="0" disallow="tram rail_urban rail rail_electric rail_fast ship container cable_car subway aircraft wheelchair scooter drone" speed="11.64" length="13.99" shape="921.94,498.97 923.69,495.29 925.77,492.36 928.18,490.18 930.91,488.75"/>
    </edge>
    <edge id=":2325098900_0" function="internal">
        <lane id=":2325098900_0_0" index="0" disallow="tram rail_urban rail rail_electric rail_fast ship container cable_car subway aircraft wheelchair scooter drone" speed="10.99" length="20.22" shape="1420.59,189.33 1423.35,194.51 1424.47,199.38 1423.95,203.94 1421.79,208.20"/>
    </edge>
    <edge id=":2325098900_1" function="internal">
        <lane id=":2325098900_1_0" index="0" disallow="tram rail_urban rail rail_electric rail_fast ship container cable_car subway aircraft wheelchair scooter drone" speed="7.42" length="19.30" shape="1420.59,189.33 1423.43,194.81 1423.28,198.29 1420.13,199.78 1413.98,199.28"/>
    </edge>
    <edge id=":2325098900_2" function="internal">
        <lane id=":2325098900_2_0" index="0" disallow="tram rail_urban rail rail_electric rail_fast ship container cable_car subway aircraft wheelchair scooter drone" speed="5.47" length="9.74" shape="1414.60,196.13 1417.70,196.38 1419.29,195.63 1419.36,193.88 1417.93,191.12"/>
    </edge>
    <edge id=":2325098900_3" function="internal">
        <lane id=":2325098900_3_0" index="0" disallow="tram rail_urban rail rail_electric rail_fast ship container cable_car subway aircraft wheelchair scooter drone" speed="7.87" length="18.20" shape="1414.60,196.13 1420.28,197.91 1423.38,200.52 1423.88,203.95 1421.79,208.20"/>
    </edge>
    <edge id=":2325098900_4" function="internal">
        <lane id=":2325098900_4_0" index="0" disallow="tram rail_urban rail rail_electric rail_fast ship container cable_car subway aircraft wheelchair scooter drone" speed="6.30" length="11.18" shape="1419.20,206.32 1420.31,203.90 1419.81,201.93 1417.70,200.39 1413.98,199.28"/>
    </edge>
    <edge id=":2325098900_5" function="internal">
        <lane id=":2325098900_5_0" index="0" disallow="tram rail_urban rail rail_electric rail_fast ship container cable_car subway aircraft wheelchair scooter drone" speed="9.91" length="16.30" shape="1419.20,206.32 1420.86,202.97 1421.20,199.32 1420.23,195.37 1417.93,191.12"/>
    </edge>
    <edge id=":2325098943_0" function="internal">
        <lane id=":2325098943_0_0" index="0" disallow="tram rail_urban rail rail_electric rail_fast ship container cable_car subway aircraft wheelchair scooter drone" speed="13.89" length="23.74" shape="1177.63,59.62 1171.76,62.04 1166.95,65.40 1163.22,69.68 1160.56,74.88"/>
    </edge>
    <edge id=":2325098943_1" function="internal">
        <lane id=":2325098943_1_0" index="0" disallow="tram rail_urban rail rail_electric rail_fast ship container cable_car subway aircraft wheelchair scooter drone" speed="13.89" length="25.18" shape="1177.63,59.62 1153.82,67.81"/>
    </edge>
    <edge id=":2325098943_2" function="internal">
        <lane id=":2325098943_2_0" index="0" disallow="tram rail_urban rail rail_electric rail_fast ship container cable_car subway aircraft wheelchair scooter drone" speed="7.34" length="4.78" shape="1177.63,59.62 1172.92,60.48"/>
    </edge>
    <edge id=":2325098943_12" function="internal">
        <lane id=":2325098943_12_0" index="0" disallow="tram rail_urban rail rail_electric rail_fast ship container cable_car subway aircraft wheelchair scooter drone" speed="7.34" length="13.01" shape="1172.92,60.48 1172.05,60.64 1168.76,59.58 1167.77,56.45 1169.07,51.23"/>
    </edge>
    <edge id=":2325098943_3" function="internal">
        <lane id=":2325098943_3_0" index="0" disallow="tram rail_urban rail rail_electric rail_fast ship container cable_car subway aircraft wheelchair scooter drone" speed="5.43" length="9.02" shape="1172.05,52.40 1171.39,55.05 1171.89,56.63 1173.56,57.17 1176.39,56.65"/>
    </edge>
    <edge id=":2325098943_4" function="internal">
        <lane id=":2325098943_4_0" index="0" disallow="tram rail_urban rail rail_electric rail_fast ship container cable_car subway aircraft wheelchair scooter drone" speed="13.89" length="25.25" shape="1172.05,52.40 1169.73,57.22 1166.28,63.63 1162.84,70.05 1160.56,74.88"/>
    </edge>
    <edge id=":2325098943_5" function="internal">
        <lane id=":2325098943_5_0" index="0" disallow="tram rail_urban rail rail_electric rail_fast ship container cable_car subway aircraft wheelchair scooter drone" speed="13.89" length="24.41" shape="1172.05,52.40 1169.21,56.96 1164.66,61.53 1159.24,65.39 1153.82,67.81"/>
    </edge>
    <edge id=":2325098943_6" function="internal">
        <lane id=":2325098943_6_0" index="0" disallow="tram rail_urban rail rail_electric rail_fast ship container cable_car subway aircraft wheelchair scooter drone" speed="13.66" length="21.80" shape="1152.94,64.73 1158.52,62.59 1163.07,59.62 1166.59,55.84 1169.07,51.23"/>
    </edge>
    <edge id=":2325098943_7" function="internal">
        <lane id=":2325098943_7_0" index="0" disallow="tram rail_urban rail rail_electric rail_fast ship container cable_car subway aircraft wheelchair scooter drone" speed="13.89" length="24.80" shape="1152.94,64.73 1176.39,56.65"/>
    </edge>
    <edge id=":2325098943_8" function="internal">
        <lane id=":2325098943_8_0" index="0" disallow="tram rail_urban rail rail_electric rail_fast ship container cable_car subway aircraft wheelchair scooter drone" speed="7.51" length="3.70" shape="1152.94,64.73 1156.61,64.22"/>
    </edge>
    <edge id=":2325098943_13" function="internal">
        <lane id=":2325098943_13_0" index="0" disallow="tram rail_urban rail rail_electric rail_fast ship container cable_car subway aircraft wheelchair scooter drone" speed="7.51" length="14.67" shape="1156.61,64.22 1158.21,64.00 1161.24,65.45 1162.02,69.08 1160.56,74.88"/>
    </edge>
    <edge id=":2325098943_9" function="internal">
        <lane id=":2325098943_9_0" index="0" disallow="tram rail_urban rail rail_electric rail_fast ship container cable_car subway aircraft wheelchair scooter drone" speed="5.58" length="9.46" shape="1157.88,72.90 1158.61,69.96 1158.18,68.13 1156.58,67.41 1153.82,67.81"/>
    </edge>
    <edge id=":2325098943_10" function="internal">
        <lane id=":2325098943_10_0" index="0" disallow="tram rail_urban rail rail_electric rail_fast ship container cable_car subway aircraft wheelchair scooter drone" speed="13.89" length="24.39" shape="1157.88,72.90 1160.12,68.20 1163.45,62.06 1166.80,55.93 1169.07,51.23"/>
    </edge>
    <edge id=":2325098943_11" function="internal">
        <lane id=":2325098943_11_0" index="0" disallow="tram rail_urban rail rail_electric rail_fast ship container cable_car subway aircraft wheelchair scooter drone" speed="13.89" length="25.53" shape="1157.88,72.90 1160.72,67.40 1164.75,62.86 1169.98,59.28 1176.39,56.65"/>
    </edge>
    <edge id=":2325099072_0" function="internal">
        <lane id=":2325099072_0_0" index="0" disallow="tram rail_urban rail rail_electric rail_fast ship container cable_car subway aircraft wheelchair scooter drone" speed="13.89" length="0.61" shape="552.01,1046.74 551.90,1046.89 551.83,1046.99 551.78,1047.11 551.73,1047.28"/>
    </edge>
    <edge id=":2325099072_1" function="internal">
        <lane id=":2325099072_1_0" index="0" disallow="tram rail_urban rail rail_electric rail_fast ship container cable_car subway aircraft wheelchair scooter drone" speed="9.47" length="1.83" shape="548.66,1046.36 548.82,1045.84 548.97,1045.50 549.17,1045.18 549.50,1044.75"/>
    </edge>
    <edge id=":2325099111_0" function="internal">
        <lane id=":2325099111_0_0" index="0" disallow="tram rail_urban rail rail_electric rail_fast ship container cable_car subway aircraft wheelchair scooter drone" speed="7.09" length="10.45" shape="1125.97,172.94 1125.23,170.10 1123.83,168.14 1121.75,167.04 1119.01,166.80"/>
    </edge>
    <edge id=":2325099111_1" function="internal">
        <lane id=":2325099111_1_0" index="0" disallow="tram rail_urban rail rail_electric rail_fast ship container cable_car subway aircraft wheelchair scooter drone" speed="13.89" length="15.26" shape="1125.97,172.94 1124.20,157.77"/>
    </edge>
    <edge id=":2325099111_2" function="internal">
        <lane id=":2325099111_2_0" index="0" disallow="tram rail_urban rail rail_electric rail_fast ship container cable_car subway aircraft wheelchair scooter drone" speed="7.79" length="4.23" shape="1125.97,172.94 1126.06,168.83 1126.11,168.72"/>
    </edge>
    <edge id=":2325099111_12" function="internal">
        <lane id=":2325099111_12_0" index="0" disallow="tram rail_urban rail rail_electric rail_fast ship container cable_car subway aircraft wheelchair scooter drone" speed="7.79" length="10.47" shape="1126.11,168.72 1127.47,165.91 1130.21,164.17 1134.27,163.60"/>
    </edge>
    <edge id=":2325099111_3" function="internal">
        <lane id=":2325099111_3_0" index="0" disallow="tram rail_urban rail rail_electric rail_fast ship container cable_car subway aircraft wheelchair scooter drone" speed="6.25" length="9.04" shape="1134.26,166.81 1131.75,167.15 1130.07,168.23 1129.20,170.02 1129.14,172.55"/>
    </edge>
    <edge id=":2325099111_4" function="internal">
        <lane id=":2325099111_4_0" index="0" disallow="tram rail_urban rail rail_electric rail_fast ship container cable_car subway aircraft wheelchair scooter drone" speed="13.89" length="15.25" shape="1134.26,166.81 1119.01,166.80"/>
    </edge>
    <edge id=":2325099111_5" function="internal">
        <lane id=":2325099111_5_0" index="0" disallow="tram rail_urban rail rail_electric rail_fast ship container cable_car subway aircraft wheelchair scooter drone" speed="8.43" length="4.22" shape="1134.26,166.81 1130.85,166.02 1130.25,165.62"/>
    </edge>
    <edge id=":2325099111_13" function="internal">
        <lane id=":2325099111_13_0" index="0" disallow="tram rail_urban rail rail_electric rail_fast ship container cable_car subway aircraft wheelchair scooter drone" speed="8.43" length="10.25" shape="1130.25,165.62 1127.73,163.96 1125.35,161.07 1124.20,157.77"/>
    </edge>
    <edge id=":2325099111_6" function="internal">
        <lane id=":2325099111_6_0" index="0" disallow="tram rail_urban rail rail_electric rail_fast ship container cable_car subway aircraft wheelchair scooter drone" speed="7.20" length="10.31" shape="1127.38,157.42 1128.07,160.11 1129.45,162.04 1131.51,163.20 1134.27,163.60"/>
    </edge>
    <edge id=":2325099111_7" function="internal">
        <lane id=":2325099111_7_0" index="0" disallow="tram rail_urban rail rail_electric rail_fast ship container cable_car subway aircraft wheelchair scooter drone" speed="13.89" length="15.23" shape="1127.38,157.42 1129.14,172.55"/>
    </edge>
    <edge id=":2325099111_8" function="internal">
        <lane id=":2325099111_8_0" index="0" disallow="tram rail_urban rail rail_electric rail_fast ship container cable_car subway aircraft wheelchair scooter drone" speed="7.95" length="3.88" shape="1127.38,157.42 1127.22,161.30"/>
    </edge>
    <edge id=":2325099111_14" function="internal">
        <lane id=":2325099111_14_0" index="0" disallow="tram rail_urban rail rail_electric rail_fast ship container cable_car subway aircraft wheelchair scooter drone" speed="7.95" length="10.61" shape="1127.22,161.30 1125.78,164.15 1123.04,165.99 1119.01,166.80"/>
    </edge>
    <edge id=":2325099111_9" function="internal">
        <lane id=":2325099111_9_0" index="0" disallow="tram rail_urban rail rail_electric rail_fast ship container cable_car subway aircraft wheelchair scooter drone" speed="6.39" length="8.96" shape="1119.04,163.59 1121.52,163.09 1123.21,161.95 1124.11,160.18 1124.20,157.77"/>
    </edge>
    <edge id=":2325099111_10" function="internal">
        <lane id=":2325099111_10_0" index="0" disallow="tram rail_urban rail rail_electric rail_fast ship container cable_car subway aircraft wheelchair scooter drone" speed="13.89" length="15.23" shape="1119.04,163.59 1134.27,163.60"/>
    </edge>
    <edge id=":2325099111_11" function="internal">
        <lane id=":2325099111_11_0" index="0" disallow="tram rail_urban rail rail_electric rail_fast ship container cable_car subway aircraft wheelchair scooter drone" speed="8.25" length="4.64" shape="1119.04,163.59 1122.43,164.24 1123.42,164.89"/>
    </edge>
    <edge id=":2325099111_15" function="internal">
        <lane id=":2325099111_15_0" index="0" disallow="tram rail_urban rail rail_electric rail_fast ship container cable_car subway aircraft wheelchair scooter drone" speed="8.25" length="9.87" shape="1123.42,164.89 1125.56,166.29 1127.96,169.22 1129.14,172.55"/>
    </edge>
    <edge id=":6092007574_0" function="internal">
        <lane id=":6092007574_0_0" index="0" disallow="tram rail_urban rail rail_electric rail_fast ship container cable_car subway aircraft wheelchair scooter drone" speed="13.89" length="15.86" shape="1369.13,280.82 1359.76,293.62"/>
    </edge>
    <edge id=":6092007574_1" function="internal">
        <lane id=":6092007574_1_0" index="0" disallow="tram rail_urban rail rail_electric rail_fast ship container cable_car subway aircraft wheelchair scooter drone" speed="11.49" length="3.55" shape="1369.13,280.82 1366.77,283.11 1366.54,283.23"/>
    </edge>
    <edge id=":6092007574_6" function="internal">
        <lane id=":6092007574_6_0" index="0" disallow="tram rail_urban rail rail_electric rail_fast ship container cable_car subway aircraft wheelchair scooter drone" speed="11.49" length="12.70" shape="1366.54,283.23 1363.51,284.72 1359.35,285.64 1354.30,285.88"/>
    </edge>
    <edge id=":6092007574_2" function="internal">
        <lane id=":6092007574_2_0" index="0" disallow="tram rail_urban rail rail_electric rail_fast ship container cable_car subway aircraft wheelchair scooter drone" speed="10.41" length="13.19" shape="1354.35,282.70 1358.62,282.53 1362.08,281.84 1364.72,280.65 1366.54,278.94"/>
    </edge>
    <edge id=":6092007574_3" function="internal">
        <lane id=":6092007574_3_0" index="0" disallow="tram rail_urban rail rail_electric rail_fast ship container cable_car subway aircraft wheelchair scooter drone" speed="7.38" length="17.52" shape="1354.35,282.70 1359.67,283.47 1362.35,285.54 1362.38,288.93 1359.76,293.62"/>
    </edge>
    <edge id=":6092007574_4" function="internal">
        <lane id=":6092007574_4_0" index="0" disallow="tram rail_urban rail rail_electric rail_fast ship container cable_car subway aircraft wheelchair scooter drone" speed="5.58" length="9.36" shape="1357.18,291.73 1358.58,289.22 1358.56,287.41 1357.14,286.30 1354.30,285.88"/>
    </edge>
    <edge id=":6092007574_5" function="internal">
        <lane id=":6092007574_5_0" index="0" disallow="tram rail_urban rail rail_electric rail_fast ship container cable_car subway aircraft wheelchair scooter drone" speed="13.89" length="15.84" shape="1357.18,291.73 1366.54,278.94"/>
    </edge>
    <edge id=":6092032472_0" function="internal">
        <lane id=":6092032472_0_0" index="0" disallow="tram rail_urban rail rail_electric rail_fast ship container cable_car subway aircraft wheelchair scooter drone" speed="13.89" length="14.38" shape="874.92,815.15 869.53,828.48"/>
    </edge>
    <edge id=":6092032472_1" function="internal">
        <lane id=":6092032472_1_0" index="0" disallow="tram rail_urban rail rail_electric rail_fast ship container cable_car subway aircraft wheelchair scooter drone" speed="7.90" length="4.09" shape="874.92,815.15 872.90,818.58 872.81,818.65"/>
    </edge>
    <edge id=":6092032472_6" function="internal">
        <lane id=":6092032472_6_0" index="0" disallow="tram rail_urban rail rail_electric rail_fast ship container cable_car subway aircraft wheelchair scooter drone" speed="7.90" length="10.33" shape="872.81,818.65 870.29,820.48 867.08,820.83 863.28,819.63"/>
    </edge>
    <edge id=":6092032472_2" function="internal">
        <lane id=":6092032472_2_0" index="0" disallow="tram rail_urban rail rail_electric rail_fast ship container cable_car subway aircraft wheelchair scooter drone" speed="6.38" length="9.04" shape="864.66,816.75 867.04,817.50 869.05,817.28 870.69,816.09 871.95,813.94"/>
    </edge>
    <edge id=":6092032472_3" function="internal">
        <lane id=":6092032472_3_0" index="0" disallow="tram rail_urban rail rail_electric rail_fast ship container cable_car subway aircraft wheelchair scooter drone" speed="8.22" length="14.27" shape="864.66,816.75 867.97,818.92 869.89,821.60 870.41,824.79 869.53,828.48"/>
    </edge>
    <edge id=":6092032472_4" function="internal">
        <lane id=":6092032472_4_0" index="0" disallow="tram rail_urban rail rail_electric rail_fast ship container cable_car subway aircraft wheelchair scooter drone" speed="6.77" length="9.36" shape="866.56,827.29 867.12,824.90 866.76,822.82 865.48,821.07 863.28,819.63"/>
    </edge>
    <edge id=":6092032472_5" function="internal">
        <lane id=":6092032472_5_0" index="0" disallow="tram rail_urban rail rail_electric rail_fast ship container cable_car subway aircraft wheelchair scooter drone" speed="13.89" length="14.40" shape="866.56,827.29 871.95,813.94"/>
    </edge>
    <edge id=":6092168801_0" function="internal">
        <lane id=":6092168801_0_0" index="0" disallow="tram rail_urban rail rail_electric rail_fast ship container cable_car subway aircraft wheelchair scooter drone" speed="13.89" length="0.54" shape="1083.89,351.37 1083.74,351.43 1083.65,351.48 1083.56,351.54 1083.43,351.64"/>
    </edge>
    <edge id=":6092168801_1" function="internal">
        <lane id=":6092168801_1_0" index="0" disallow="tram rail_urban rail rail_electric rail_fast ship container cable_car subway aircraft wheelchair scooter drone" speed="11.17" length="1.62" shape="1081.38,349.19 1081.75,348.89 1082.02,348.70 1082.31,348.56 1082.76,348.38"/>
    </edge>
    <edge id=":6092168813_0" function="internal">
        <lane id=":6092168813_0_0" index="0" disallow="tram rail_urban rail rail_electric rail_fast ship container cable_car subway aircraft wheelchair scooter drone" speed="13.89" length="15.52" shape="1197.40,511.89 1188.20,524.38"/>
    </edge>
    <edge id=":6092168813_1" function="internal">
        <lane id=":6092168813_1_0" index="0" disallow="tram rail_urban rail rail_electric rail_fast ship container cable_car subway aircraft wheelchair scooter drone" speed="7.39" length="5.01" shape="1197.40,511.89 1193.91,515.48"/>
    </edge>
    <edge id=":6092168813_6" function="internal">
        <lane id=":6092168813_6_0" index="0" disallow="tram rail_urban rail rail_electric rail_fast ship container cable_car subway aircraft wheelchair scooter drone" speed="7.39" length="12.13" shape="1193.91,515.48 1193.77,515.61 1190.54,516.57 1187.70,514.75 1185.26,510.16"/>
    </edge>
    <edge id=":6092168813_2" function="internal">
        <lane id=":6092168813_2_0" index="0" disallow="tram rail_urban rail rail_electric rail_fast ship container cable_car subway aircraft wheelchair scooter drone" speed="5.62" length="9.29" shape="1188.26,509.03 1189.58,511.52 1191.12,512.51 1192.87,511.99 1194.84,509.97"/>
    </edge>
    <edge id=":6092168813_3" function="internal">
        <lane id=":6092168813_3_0" index="0" disallow="tram rail_urban rail rail_electric rail_fast ship container cable_car subway aircraft wheelchair scooter drone" speed="11.24" length="15.95" shape="1188.26,509.03 1189.66,513.75 1190.12,517.88 1189.63,521.42 1188.20,524.38"/>
    </edge>
    <edge id=":6092168813_4" function="internal">
        <lane id=":6092168813_4_0" index="0" disallow="tram rail_urban rail rail_electric rail_fast ship container cable_car subway aircraft wheelchair scooter drone" speed="10.12" length="12.82" shape="1185.60,522.52 1186.63,520.27 1186.93,517.46 1186.47,514.08 1185.26,510.16"/>
    </edge>
    <edge id=":6092168813_5" function="internal">
        <lane id=":6092168813_5_0" index="0" disallow="tram rail_urban rail rail_electric rail_fast ship container cable_car subway aircraft wheelchair scooter drone" speed="13.89" length="15.59" shape="1185.60,522.52 1194.84,509.97"/>
    </edge>
    <edge id=":6092168820_0" function="internal">
        <lane id=":6092168820_0_0" index="0" disallow="tram rail_urban rail rail_electric rail_fast ship container cable_car subway aircraft wheelchair scooter drone" speed="8.73" length="10.73" shape="1232.06,306.71 1229.98,307.91 1228.37,309.75 1227.25,312.22 1226.60,315.33"/>
    </edge>
    <edge id=":6092168820_1" function="internal">
        <lane id=":6092168820_1_0" index="0" disallow="tram rail_urban rail rail_electric rail_fast ship container cable_car subway aircraft wheelchair scooter drone" speed="13.89" length="14.16" shape="1232.06,306.71 1228.63,307.85 1225.26,308.63 1221.83,309.13 1218.22,309.44"/>
    </edge>
    <edge id=":6092168820_2" function="internal">
        <lane id=":6092168820_2_0" index="0" disallow="tram rail_urban rail rail_electric rail_fast ship container cable_car subway aircraft wheelchair scooter drone" speed="13.89" length="13.20" shape="1218.01,306.25 1221.47,305.97 1224.58,305.54 1227.62,304.83 1230.91,303.72"/>
    </edge>
    <edge id=":6092168820_3" function="internal">
        <lane id=":6092168820_3_0" index="0" disallow="tram rail_urban rail rail_electric rail_fast ship container cable_car subway aircraft wheelchair scooter drone" speed="7.71" length="14.94" shape="1218.01,306.25 1222.21,306.58 1225.04,308.20 1226.50,311.12 1226.60,315.33"/>
    </edge>
    <edge id=":6092168820_4" function="internal">
        <lane id=":6092168820_4_0" index="0" disallow="tram rail_urban rail rail_electric rail_fast ship container cable_car subway aircraft wheelchair scooter drone" speed="6.14" length="9.06" shape="1223.42,314.95 1223.36,312.39 1222.47,310.63 1220.76,309.64 1218.22,309.44"/>
    </edge>
    <edge id=":6092168820_5" function="internal">
        <lane id=":6092168820_5_0" index="0" disallow="tram rail_urban rail rail_electric rail_fast ship container cable_car subway aircraft wheelchair scooter drone" speed="9.97" length="14.20" shape="1223.42,314.95 1224.28,310.96 1225.82,307.76 1228.03,305.35 1230.91,303.72"/>
    </edge>