<?xml version="1.0" encoding="UTF-8"?>

<!-- generated on 2025-05-23 12:11:07.120070 by randomTrips.py v1_22_0+0002-63e50f52594
<configuration>
    <net-file value="E:/licenta/oras-mic/2025-05-08-13-35-40\osm.net.xml"/>
    <output-trip-file value="E:/licenta/oras-mic/2025-05-08-13-35-40\trips.trips.xml"/>
    <route-file value="e:\licenta\oras-mic\2025-05-08-13-35-40\routes.rou.xml"/>
    <prefix value="veh"/>
    <trip-attributes value="departLane=&quot;best&quot; departSpeed=&quot;0&quot; departPos=&quot;random&quot;"/>
    <fringe-factor value="3.0"/>
    <seed value="19763"/>
    <end value="600.0"/>
    <period value="2.32"/>
</configuration>
-->

<routes xmlns:xsi="http://www.w3.org/2001/XMLSchema-instance" xsi:noNamespaceSchemaLocation="http://sumo.dlr.de/xsd/routes_file.xsd">
    <trip id="veh0" depart="0.00" from="258728090#1" to="-258728090#0" departLane="best" departSpeed="0" departPos="random"/>
    <trip id="veh1" depart="2.32" from="223632522" to="-E3" departLane="best" departSpeed="0" departPos="random"/>
    <trip id="veh2" depart="4.64" from="258728090#3" to="E4" departLane="best" departSpeed="0" departPos="random"/>
    <trip id="veh3" depart="6.96" from="-223632526" to="649036317#3" departLane="best" departSpeed="0" departPos="random"/>
    <trip id="veh4" depart="9.28" from="-144943776" to="649036317#3" departLane="best" departSpeed="0" departPos="random"/>
    <trip id="veh5" depart="11.60" from="-258728090#0" to="223632525#1" departLane="best" departSpeed="0" departPos="random"/>
    <trip id="veh6" depart="13.92" from="223632525#0" to="-E2" departLane="best" departSpeed="0" departPos="random"/>
    <trip id="veh7" depart="16.24" from="-144943776" to="223632526" departLane="best" departSpeed="0" departPos="random"/>
    <trip id="veh8" depart="18.56" from="-649036317#3" to="649064896#1" departLane="best" departSpeed="0" departPos="random"/>
    <trip id="veh9" depart="20.88" from="-223632517" to="-671642282" departLane="best" departSpeed="0" departPos="random"/>
    <trip id="veh10" depart="23.20" from="223632525#1" to="649064896#1" departLane="best" departSpeed="0" departPos="random"/>
    <trip id="veh11" depart="25.52" from="-223632526" to="649040853#1" departLane="best" departSpeed="0" departPos="random"/>
    <trip id="veh12" depart="27.84" from="-223632525#2" to="223632525#1" departLane="best" departSpeed="0" departPos="random"/>
    <trip id="veh13" depart="30.16" from="-671642282" to="649036317#3" departLane="best" departSpeed="0" departPos="random"/>
    <trip id="veh14" depart="32.48" from="-E3" to="223632517" departLane="best" departSpeed="0" departPos="random"/>
    <trip id="veh15" depart="34.80" from="223632525#0" to="E1" departLane="best" departSpeed="0" departPos="random"/>
    <trip id="veh16" depart="37.12" from="-649036317#3" to="E2" departLane="best" departSpeed="0" departPos="random"/>
    <trip id="veh17" depart="39.44" from="258728090#4" to="223632526" departLane="best" departSpeed="0" departPos="random"/>
    <trip id="veh18" depart="41.76" from="-649064896#1" to="-223632525#0" departLane="best" departSpeed="0" departPos="random"/>
    <trip id="veh19" depart="44.08" from="649040853#1" to="649040853#2" departLane="best" departSpeed="0" departPos="random"/>
    <trip id="veh20" depart="46.40" from="-144943776" to="-E4" departLane="best" departSpeed="0" departPos="random"/>
    <trip id="veh21" depart="48.72" from="223632520#2" to="258728090#1" departLane="best" departSpeed="0" departPos="random"/>
    <trip id="veh22" depart="51.04" from="E1" to="-671642282" departLane="best" departSpeed="0" departPos="random"/>
    <trip id="veh23" depart="53.36" from="223632517" to="223632525#1" departLane="best" departSpeed="0" departPos="random"/>
    <trip id="veh24" depart="55.68" from="649064896#1" to="223632526" departLane="best" departSpeed="0" departPos="random"/>
    <trip id="veh25" depart="58.00" from="223632517" to="258728090#0" departLane="best" departSpeed="0" departPos="random"/>
    <trip id="veh26" depart="60.32" from="223632525#0" to="223632526" departLane="best" departSpeed="0" departPos="random"/>
    <trip id="veh27" depart="62.64" from="-223632526" to="649064895" departLane="best" departSpeed="0" departPos="random"/>
    <trip id="veh28" depart="64.96" from="671642282" to="649064896#1" departLane="best" departSpeed="0" departPos="random"/>
    <trip id="veh29" depart="67.28" from="-144943776" to="258728090#4" departLane="best" departSpeed="0" departPos="random"/>
    <trip id="veh30" depart="69.60" from="-258728090#3" to="-649040853#1" departLane="best" departSpeed="0" departPos="random"/>
    <trip id="veh31" depart="71.92" from="-649064896#1" to="-258728090#4" departLane="best" departSpeed="0" departPos="random"/>
    <trip id="veh32" depart="74.24" from="223632525#0" to="-671642282" departLane="best" departSpeed="0" departPos="random"/>
    <trip id="veh33" depart="76.56" from="-649040853#1" to="-223632517" departLane="best" departSpeed="0" departPos="random"/>
    <trip id="veh34" depart="78.88" from="223632522" to="-223632525#0" departLane="best" departSpeed="0" departPos="random"/>
    <trip id="veh35" depart="81.20" from="-649036317#3" to="649040853#2" departLane="best" departSpeed="0" departPos="random"/>
    <trip id="veh36" depart="83.52" from="223632525#1" to="E1" departLane="best" departSpeed="0" departPos="random"/>
    <trip id="veh37" depart="85.84" from="-671642282" to="258728090#1" departLane="best" departSpeed="0" departPos="random"/>
    <trip id="veh38" depart="88.16" from="-223632520#2" to="-223632520#0" departLane="best" departSpeed="0" departPos="random"/>
    <trip id="veh39" depart="90.48" from="258728090#0" to="-649064895" departLane="best" departSpeed="0" departPos="random"/>
    <trip id="veh40" depart="92.80" from="-258728090#3" to="223632526" departLane="best" departSpeed="0" departPos="random"/>
    <trip id="veh41" depart="95.12" from="-223632520#2" to="-258728090#4" departLane="best" departSpeed="0" departPos="random"/>
    <trip id="veh42" depart="97.44" from="-671642282" to="-649064896#1" departLane="best" departSpeed="0" departPos="random"/>
    <trip id="veh43" depart="99.76" from="-649064896#1" to="-649064896#1" departLane="best" departSpeed="0" departPos="random"/>
    <trip id="veh44" depart="102.08" from="223632525#1" to="258728090#4" departLane="best" departSpeed="0" departPos="random"/>
    <trip id="veh45" depart="104.40" from="-671642282" to="-649064895" departLane="best" departSpeed="0" departPos="random"/>
    <trip id="veh46" depart="106.72" from="649040853#1" to="-223632525#2" departLane="best" departSpeed="0" departPos="random"/>
    <trip id="veh47" depart="109.04" from="-671642282" to="223632517" departLane="best" departSpeed="0" departPos="random"/>
    <trip id="veh48" depart="111.36" from="-258728090#3" to="-223632522" departLane="best" departSpeed="0" departPos="random"/>
    <trip id="veh49" depart="113.68" from="-223632526" to="258728090#3" departLane="best" departSpeed="0" departPos="random"/>
    <trip id="veh50" depart="116.00" from="649064895" to="-E4" departLane="best" departSpeed="0" departPos="random"/>
    <trip id="veh51" depart="118.32" from="E2" to="223632520#1" departLane="best" departSpeed="0" departPos="random"/>
    <trip id="veh52" depart="120.64" from="-258728090#3" to="258728090#3" departLane="best" departSpeed="0" departPos="random"/>
    <trip id="veh53" depart="122.96" from="-258728090#2" to="223632520#2" departLane="best" departSpeed="0" departPos="random"/>
    <trip id="veh54" depart="125.28" from="223632525#1" to="-258728090#2" departLane="best" departSpeed="0" departPos="random"/>
    <trip id="veh55" depart="127.60" from="E1" to="223632526" departLane="best" departSpeed="0" departPos="random"/>
    <trip id="veh56" depart="129.92" from="649064895" to="-E1" departLane="best" departSpeed="0" departPos="random"/>
    <trip id="veh57" depart="132.24" from="649064895" to="-649064895" departLane="best" departSpeed="0" departPos="random"/>
    <trip id="veh58" depart="134.56" from="-258728090#3" to="649064895" departLane="best" departSpeed="0" departPos="random"/>
    <trip id="veh59" depart="136.88" from="-223632526" to="-E3" departLane="best" departSpeed="0" departPos="random"/>
    <trip id="veh60" depart="139.20" from="-649036317#3" to="E2" departLane="best" departSpeed="0" departPos="random"/>
    <trip id="veh61" depart="141.52" from="223632520#0" to="E1" departLane="best" departSpeed="0" departPos="random"/>
    <trip id="veh62" depart="143.84" from="-671642282" to="-E3" departLane="best" departSpeed="0" departPos="random"/>
    <trip id="veh63" depart="146.16" from="-223632526" to="671642282" departLane="best" departSpeed="0" departPos="random"/>
    <trip id="veh64" depart="148.48" from="223632522" to="-223632525#0" departLane="best" departSpeed="0" departPos="random"/>
    <trip id="veh65" depart="150.80" from="223632520#0" to="223632526" departLane="best" departSpeed="0" departPos="random"/>
    <trip id="veh66" depart="153.12" from="258728090#1" to="-258728090#3" departLane="best" departSpeed="0" departPos="random"/>
    <trip id="veh67" depart="155.44" from="223632520#1" to="-649064895" departLane="best" departSpeed="0" departPos="random"/>
    <trip id="veh68" depart="157.76" from="-E3" to="649036317#3" departLane="best" departSpeed="0" departPos="random"/>
    <trip id="veh69" depart="160.08" from="-223632525#2" to="-223632522" departLane="best" departSpeed="0" departPos="random"/>
    <trip id="veh70" depart="162.40" from="649064895" to="649040853#2" departLane="best" departSpeed="0" departPos="random"/>
    <trip id="veh71" depart="164.72" from="-223632520#1" to="E3" departLane="best" departSpeed="0" departPos="random"/>
    <trip id="veh72" depart="167.04" from="-649036317#3" to="649040853#2" departLane="best" departSpeed="0" departPos="random"/>
    <trip id="veh73" depart="169.36" from="-258728090#4" to="649036317#3" departLane="best" departSpeed="0" departPos="random"/>
    <trip id="veh74" depart="171.68" from="223632525#0" to="-E3" departLane="best" departSpeed="0" departPos="random"/>
    <trip id="veh75" depart="174.00" from="223632520#1" to="E3" departLane="best" departSpeed="0" departPos="random"/>
    <trip id="veh76" depart="176.32" from="-E1" to="649064896#1" departLane="best" departSpeed="0" departPos="random"/>
    <trip id="veh77" depart="178.64" from="258728090#1" to="-223632517" departLane="best" departSpeed="0" departPos="random"/>
    <trip id="veh78" depart="180.96" from="-E3" to="649036317#3" departLane="best" departSpeed="0" departPos="random"/>
    <trip id="veh79" depart="183.28" from="223632520#0" to="-223632522" departLane="best" departSpeed="0" departPos="random"/>
    <trip id="veh80" depart="185.60" from="223632522" to="258728090#0" departLane="best" departSpeed="0" departPos="random"/>
    <trip id="veh81" depart="187.92" from="-223632526" to="649040853#2" departLane="best" departSpeed="0" departPos="random"/>
    <trip id="veh82" depart="190.24" from="E1" to="-E2" departLane="best" departSpeed="0" departPos="random"/>
    <trip id="veh83" depart="192.56" from="-223632520#2" to="649040853#2" departLane="best" departSpeed="0" departPos="random"/>
    <trip id="veh84" depart="194.88" from="E1" to="E2" departLane="best" departSpeed="0" departPos="random"/>
    <trip id="veh85" depart="197.20" from="223632525#1" to="-649064896#1" departLane="best" departSpeed="0" departPos="random"/>
    <trip id="veh86" depart="199.52" from="223632522" to="649040853#1" departLane="best" departSpeed="0" departPos="random"/>
    <trip id="veh87" depart="201.84" from="223632520#0" to="258728090#3" departLane="best" departSpeed="0" departPos="random"/>
    <trip id="veh88" depart="204.16" from="223632522" to="-258728090#3" departLane="best" departSpeed="0" departPos="random"/>
    <trip id="veh89" depart="206.48" from="-E2" to="-649064896#1" departLane="best" departSpeed="0" departPos="random"/>
    <trip id="veh90" depart="208.80" from="-144943776" to="-671642282" departLane="best" departSpeed="0" departPos="random"/>
    <trip id="veh91" depart="211.12" from="-223632517" to="649040853#2" departLane="best" departSpeed="0" departPos="random"/>
    <trip id="veh92" depart="213.44" from="-649036317#3" to="649036317#3" departLane="best" departSpeed="0" departPos="random"/>
    <trip id="veh93" depart="215.76" from="E3" to="223632520#2" departLane="best" departSpeed="0" departPos="random"/>
    <trip id="veh94" depart="218.08" from="-223632526" to="223632517" departLane="best" departSpeed="0" departPos="random"/>
    <trip id="veh95" depart="220.40" from="-649040853#1" to="-223632520#0" departLane="best" departSpeed="0" departPos="random"/>
    <trip id="veh96" depart="222.72" from="649064895" to="-223632522" departLane="best" departSpeed="0" departPos="random"/>
    <trip id="veh97" depart="225.04" from="-649040853#1" to="-223632525#0" departLane="best" departSpeed="0" departPos="random"/>
    <trip id="veh98" depart="227.36" from="-258728090#3" to="223632526" departLane="best" departSpeed="0" departPos="random"/>
    <trip id="veh99" depart="229.68" from="-258728090#3" to="649036317#3" departLane="best" departSpeed="0" departPos="random"/>
    <trip id="veh100" depart="232.00" from="-E4" to="E1" departLane="best" departSpeed="0" departPos="random"/>
    <trip id="veh101" depart="234.32" from="223632522" to="-223632522" departLane="best" departSpeed="0" departPos="random"/>
    <trip id="veh102" depart="236.64" from="E2" to="-223632525#0" departLane="best" departSpeed="0" departPos="random"/>
    <trip id="veh103" depart="238.96" from="E3" to="-258728090#2" departLane="best" departSpeed="0" departPos="random"/>
    <trip id="veh104" depart="241.28" from="-144943776" to="223632520#1" departLane="best" departSpeed="0" departPos="random"/>
    <trip id="veh105" depart="243.60" from="-649036317#3" to="649040853#2" departLane="best" departSpeed="0" departPos="random"/>
    <trip id="veh106" depart="245.92" from="-223632526" to="-E4" departLane="best" departSpeed="0" departPos="random"/>
    <trip id="veh107" depart="248.24" from="-258728090#0" to="-223632520#0" departLane="best" departSpeed="0" departPos="random"/>
    <trip id="veh108" depart="250.56" from="649064895" to="223632520#2" departLane="best" departSpeed="0" departPos="random"/>
    <trip id="veh109" depart="252.88" from="-E1" to="223632520#1" departLane="best" departSpeed="0" departPos="random"/>
    <trip id="veh110" depart="255.20" from="649064895" to="223632526" departLane="best" departSpeed="0" departPos="random"/>
    <trip id="veh111" depart="257.52" from="-258728090#2" to="223632520#1" departLane="best" departSpeed="0" departPos="random"/>
    <trip id="veh112" depart="259.84" from="223632525#0" to="-649064896#1" departLane="best" departSpeed="0" departPos="random"/>
    <trip id="veh113" depart="262.16" from="223632520#0" to="258728090#4" departLane="best" departSpeed="0" departPos="random"/>
    <trip id="veh114" depart="264.48" from="223632525#0" to="-258728090#0" departLane="best" departSpeed="0" departPos="random"/>
    <trip id="veh115" depart="266.80" from="223632525#1" to="-671642282" departLane="best" departSpeed="0" departPos="random"/>
    <trip id="veh116" depart="269.12" from="E3" to="-223632522" departLane="best" departSpeed="0" departPos="random"/>
    <trip id="veh117" depart="271.44" from="258728090#4" to="E4" departLane="best" departSpeed="0" departPos="random"/>
    <trip id="veh118" depart="273.76" from="-223632526" to="649040853#2" departLane="best" departSpeed="0" departPos="random"/>
    <trip id="veh119" depart="276.08" from="223632525#0" to="-223632522" departLane="best" departSpeed="0" departPos="random"/>
    <trip id="veh120" depart="278.40" from="-144943776" to="223632517" departLane="best" departSpeed="0" departPos="random"/>
    <trip id="veh121" depart="280.72" from="223632522" to="-223632522" departLane="best" departSpeed="0" departPos="random"/>
    <trip id="veh122" depart="283.04" from="223632525#0" to="649036317#3" departLane="best" departSpeed="0" departPos="random"/>
    <trip id="veh123" depart="285.36" from="-649064896#1" to="258728090#4" departLane="best" departSpeed="0" departPos="random"/>
    <trip id="veh124" depart="287.68" from="-223632525#2" to="258728090#4" departLane="best" departSpeed="0" departPos="random"/>
    <trip id="veh125" depart="290.00" from="-649064895" to="-258728090#4" departLane="best" departSpeed="0" departPos="random"/>
    <trip id="veh126" depart="292.32" from="E4" to="-223632525#0" departLane="best" departSpeed="0" departPos="random"/>
    <trip id="veh127" depart="294.64" from="E3" to="-223632520#0" departLane="best" departSpeed="0" departPos="random"/>
    <trip id="veh128" depart="296.96" from="-223632526" to="-223632520#2" departLane="best" departSpeed="0" departPos="random"/>
    <trip id="veh129" depart="299.28" from="223632520#0" to="649036317#3" departLane="best" departSpeed="0" departPos="random"/>
    <trip id="veh130" depart="301.60" from="-E3" to="649036317#3" departLane="best" departSpeed="0" departPos="random"/>
    <trip id="veh131" depart="303.92" from="-223632526" to="258728090#1" departLane="best" departSpeed="0" departPos="random"/>
    <trip id="veh132" depart="306.24" from="-649064896#1" to="-223632525#2" departLane="best" departSpeed="0" departPos="random"/>
    <trip id="veh133" depart="308.56" from="-144943776" to="223632525#1" departLane="best" departSpeed="0" departPos="random"/>
    <trip id="veh134" depart="310.88" from="-223632526" to="-223632520#0" departLane="best" departSpeed="0" departPos="random"/>
    <trip id="veh135" depart="313.20" from="649064896#1" to="223632517" departLane="best" departSpeed="0" departPos="random"/>
    <trip id="veh136" depart="315.52" from="E4" to="671642282" departLane="best" departSpeed="0" departPos="random"/>
    <trip id="veh137" depart="317.84" from="258728090#3" to="E2" departLane="best" departSpeed="0" departPos="random"/>
    <trip id="veh138" depart="320.16" from="223632522" to="-223632525#0" departLane="best" departSpeed="0" departPos="random"/>
    <trip id="veh139" depart="322.48" from="223632525#0" to="223632520#1" departLane="best" departSpeed="0" departPos="random"/>
    <trip id="veh140" depart="324.80" from="649040853#1" to="-223632520#0" departLane="best" departSpeed="0" departPos="random"/>
    <trip id="veh141" depart="327.12" from="-223632525#2" to="649040853#2" departLane="best" departSpeed="0" departPos="random"/>
    <trip id="veh142" depart="329.44" from="-223632526" to="649040853#2" departLane="best" departSpeed="0" departPos="random"/>
    <trip id="veh143" depart="331.76" from="-649064896#1" to="649040853#2" departLane="best" departSpeed="0" departPos="random"/>
    <trip id="veh144" depart="334.08" from="-649064896#1" to="-223632522" departLane="best" departSpeed="0" departPos="random"/>
    <trip id="veh145" depart="336.40" from="-649036317#3" to="223632517" departLane="best" departSpeed="0" departPos="random"/>
    <trip id="veh146" depart="338.72" from="649064895" to="-671642282" departLane="best" departSpeed="0" departPos="random"/>
    <trip id="veh147" depart="341.04" from="-258728090#0" to="E4" departLane="best" departSpeed="0" departPos="random"/>
    <trip id="veh148" depart="343.36" from="E4" to="-E4" departLane="best" departSpeed="0" departPos="random"/>
    <trip id="veh149" depart="345.68" from="-223632520#2" to="E3" departLane="best" departSpeed="0" departPos="random"/>
    <trip id="veh150" depart="348.00" from="-E1" to="649036317#3" departLane="best" departSpeed="0" departPos="random"/>
    <trip id="veh151" depart="350.32" from="223632520#0" to="-223632522" departLane="best" departSpeed="0" departPos="random"/>
    <trip id="veh152" depart="352.64" from="E2" to="-223632520#0" departLane="best" departSpeed="0" departPos="random"/>
    <trip id="veh153" depart="354.96" from="E4" to="-223632525#0" departLane="best" departSpeed="0" departPos="random"/>
    <trip id="veh154" depart="357.28" from="E2" to="649040853#2" departLane="best" departSpeed="0" departPos="random"/>
    <trip id="veh155" depart="359.60" from="-671642282" to="649064896#1" departLane="best" departSpeed="0" departPos="random"/>
    <trip id="veh156" depart="361.92" from="-258728090#0" to="649064895" departLane="best" departSpeed="0" departPos="random"/>
    <trip id="veh157" depart="364.24" from="-258728090#4" to="223632525#1" departLane="best" departSpeed="0" departPos="random"/>
    <trip id="veh158" depart="366.56" from="223632520#0" to="649040853#2" departLane="best" departSpeed="0" departPos="random"/>
    <trip id="veh159" depart="368.88" from="-258728090#3" to="223632526" departLane="best" departSpeed="0" departPos="random"/>
    <trip id="veh160" depart="371.20" from="E3" to="223632525#1" departLane="best" departSpeed="0" departPos="random"/>
    <trip id="veh161" depart="373.52" from="223632525#0" to="-E2" departLane="best" departSpeed="0" departPos="random"/>
    <trip id="veh162" depart="375.84" from="-144943776" to="-223632520#0" departLane="best" departSpeed="0" departPos="random"/>
    <trip id="veh163" depart="378.16" from="-E3" to="223632520#2" departLane="best" departSpeed="0" departPos="random"/>
    <trip id="veh164" depart="380.48" from="E4" to="-223632525#0" departLane="best" departSpeed="0" departPos="random"/>
    <trip id="veh165" depart="382.80" from="-223632525#2" to="258728090#3" departLane="best" departSpeed="0" departPos="random"/>
    <trip id="veh166" depart="385.12" from="-649036317#3" to="649064895" departLane="best" departSpeed="0" departPos="random"/>
    <trip id="veh167" depart="387.44" from="-144943776" to="649040853#2" departLane="best" departSpeed="0" departPos="random"/>
    <trip id="veh168" depart="389.76" from="223632520#0" to="-223632520#0" departLane="best" departSpeed="0" departPos="random"/>
    <trip id="veh169" depart="392.08" from="223632520#0" to="-223632522" departLane="best" departSpeed="0" departPos="random"/>
    <trip id="veh170" depart="394.40" from="223632525#0" to="223632526" departLane="best" departSpeed="0" departPos="random"/>
    <trip id="veh171" depart="396.72" from="671642282" to="223632526" departLane="best" departSpeed="0" departPos="random"/>
    <trip id="veh172" depart="399.04" from="649064895" to="-223632520#0" departLane="best" departSpeed="0" departPos="random"/>
    <trip id="veh173" depart="401.36" from="E4" to="-649040853#1" departLane="best" departSpeed="0" departPos="random"/>
    <trip id="veh174" depart="403.68" from="223632522" to="-258728090#3" departLane="best" departSpeed="0" departPos="random"/>
    <trip id="veh175" depart="406.00" from="E4" to="-223632525#0" departLane="best" departSpeed="0" departPos="random"/>
    <trip id="veh176" depart="408.32" from="671642282" to="-E4" departLane="best" departSpeed="0" departPos="random"/>
    <trip id="veh177" depart="410.64" from="-E3" to="-223632520#0" departLane="best" departSpeed="0" departPos="random"/>
    <trip id="veh178" depart="412.96" from="223632520#0" to="-649064896#1" departLane="best" departSpeed="0" departPos="random"/>
    <trip id="veh179" depart="415.28" from="649064896#1" to="258728090#0" departLane="best" departSpeed="0" departPos="random"/>
    <trip id="veh180" depart="417.60" from="-E2" to="-E1" departLane="best" departSpeed="0" departPos="random"/>
    <trip id="veh181" depart="419.92" from="-258728090#0" to="-649064895" departLane="best" departSpeed="0" departPos="random"/>
    <trip id="veh182" depart="422.24" from="223632520#0" to="223632526" departLane="best" departSpeed="0" departPos="random"/>
    <trip id="veh183" depart="424.56" from="-258728090#4" to="-223632520#2" departLane="best" departSpeed="0" departPos="random"/>
    <trip id="veh184" depart="426.88" from="-649064896#1" to="-223632520#2" departLane="best" departSpeed="0" departPos="random"/>
    <trip id="veh185" depart="429.20" from="258728090#0" to="E2" departLane="best" departSpeed="0" departPos="random"/>
    <trip id="veh186" depart="431.52" from="-144943776" to="E1" departLane="best" departSpeed="0" departPos="random"/>
    <trip id="veh187" depart="433.84" from="258728090#3" to="E3" departLane="best" departSpeed="0" departPos="random"/>
    <trip id="veh188" depart="436.16" from="-649036317#3" to="649036317#3" departLane="best" departSpeed="0" departPos="random"/>
    <trip id="veh189" depart="438.48" from="223632520#2" to="-223632520#2" departLane="best" departSpeed="0" departPos="random"/>
    <trip id="veh190" depart="440.80" from="-223632517" to="-649064896#1" departLane="best" departSpeed="0" departPos="random"/>
    <trip id="veh191" depart="443.12" from="-223632520#1" to="E2" departLane="best" departSpeed="0" departPos="random"/>
    <trip id="veh192" depart="445.44" from="258728090#4" to="-E3" departLane="best" departSpeed="0" departPos="random"/>
    <trip id="veh193" depart="447.76" from="223632520#0" to="-223632520#2" departLane="best" departSpeed="0" departPos="random"/>
    <trip id="veh194" depart="450.08" from="-E2" to="258728090#1" departLane="best" departSpeed="0" departPos="random"/>
    <trip id="veh195" depart="452.40" from="223632522" to="223632520#2" departLane="best" departSpeed="0" departPos="random"/>
    <trip id="veh196" depart="454.72" from="223632525#0" to="649040853#1" departLane="best" departSpeed="0" departPos="random"/>
    <trip id="veh197" depart="457.04" from="223632520#0" to="-649040853#1" departLane="best" departSpeed="0" departPos="random"/>
    <trip id="veh198" depart="459.36" from="671642282" to="649064895" departLane="best" departSpeed="0" departPos="random"/>
    <trip id="veh199" depart="461.68" from="-649064896#1" to="-258728090#0" departLane="best" departSpeed="0" departPos="random"/>
    <trip id="veh200" depart="464.00" from="E3" to="-223632522" departLane="best" departSpeed="0" departPos="random"/>
    <trip id="veh201" depart="466.32" from="-223632520#1" to="E3" departLane="best" departSpeed="0" departPos="random"/>
    <trip id="veh202" depart="468.64" from="223632525#1" to="-223632522" departLane="best" departSpeed="0" departPos="random"/>
    <trip id="veh203" depart="470.96" from="-223632526" to="649040853#2" departLane="best" departSpeed="0" departPos="random"/>
    <trip id="veh204" depart="473.28" from="223632522" to="649036317#3" departLane="best" departSpeed="0" departPos="random"/>
    <trip id="veh205" depart="475.60" from="223632520#1" to="-223632520#0" departLane="best" departSpeed="0" departPos="random"/>
    <trip id="veh206" depart="477.92" from="-649064896#1" to="258728090#1" departLane="best" departSpeed="0" departPos="random"/>
    <trip id="veh207" depart="480.24" from="223632522" to="-223632520#0" departLane="best" departSpeed="0" departPos="random"/>
    <trip id="veh208" depart="482.56" from="-144943776" to="649064896#1" departLane="best" departSpeed="0" departPos="random"/>
    <trip id="veh209" depart="484.88" from="223632520#2" to="E1" departLane="best" departSpeed="0" departPos="random"/>
    <trip id="veh210" depart="487.20" from="-E4" to="649036317#3" departLane="best" departSpeed="0" departPos="random"/>
    <trip id="veh211" depart="489.52" from="-258728090#2" to="-223632522" departLane="best" departSpeed="0" departPos="random"/>
    <trip id="veh212" depart="491.84" from="-E3" to="649064896#1" departLane="best" departSpeed="0" departPos="random"/>
    <trip id="veh213" depart="494.16" from="-649064895" to="649064896#1" departLane="best" departSpeed="0" departPos="random"/>
    <trip id="veh214" depart="496.48" from="-223632526" to="-649040853#1" departLane="best" departSpeed="0" departPos="random"/>
    <trip id="veh215" depart="498.80" from="-E3" to="258728090#1" departLane="best" departSpeed="0" departPos="random"/>
    <trip id="veh216" depart="501.12" from="-223632520#1" to="-E4" departLane="best" departSpeed="0" departPos="random"/>
    <trip id="veh217" depart="503.44" from="223632525#0" to="-223632517" departLane="best" departSpeed="0" departPos="random"/>
    <trip id="veh218" depart="505.76" from="-223632525#2" to="223632526" departLane="best" departSpeed="0" departPos="random"/>
    <trip id="veh219" depart="508.08" from="223632525#0" to="649064896#1" departLane="best" departSpeed="0" departPos="random"/>
    <trip id="veh220" depart="510.40" from="223632520#2" to="-223632525#0" departLane="best" departSpeed="0" departPos="random"/>
    <trip id="veh221" depart="512.72" from="-223632525#2" to="-223632525#0" departLane="best" departSpeed="0" departPos="random"/>
    <trip id="veh222" depart="515.04" from="223632525#0" to="-E2" departLane="best" departSpeed="0" departPos="random"/>
    <trip id="veh223" depart="517.36" from="258728090#0" to="223632526" departLane="best" departSpeed="0" departPos="random"/>
    <trip id="veh224" depart="519.68" from="-649036317#3" to="-223632517" departLane="best" departSpeed="0" departPos="random"/>
    <trip id="veh225" depart="522.00" from="-144943776" to="-223632525#0" departLane="best" departSpeed="0" departPos="random"/>
    <trip id="veh226" depart="524.32" from="223632525#0" to="-223632522" departLane="best" departSpeed="0" departPos="random"/>
    <trip id="veh227" depart="526.64" from="-223632520#1" to="-223632520#0" departLane="best" departSpeed="0" departPos="random"/>
    <trip id="veh228" depart="528.96" from="223632517" to="-223632520#0" departLane="best" departSpeed="0" departPos="random"/>
    <trip id="veh229" depart="531.28" from="-E3" to="-258728090#2" departLane="best" departSpeed="0" departPos="random"/>
    <trip id="veh230" depart="533.60" from="-223632517" to="223632526" departLane="best" departSpeed="0" departPos="random"/>
    <trip id="veh231" depart="535.92" from="671642282" to="-223632525#0" departLane="best" departSpeed="0" departPos="random"/>
    <trip id="veh232" depart="538.24" from="-258728090#3" to="-223632520#0" departLane="best" departSpeed="0" departPos="random"/>