<?xml version="1.0" encoding="UTF-8"?>

<!-- generated on 2025-05-27 17:45:52.631589 by randomTrips.py v1_22_0+0002-63e50f52594
<configuration>
    <net-file value="E:/licenta/oras-mic/2025-05-08-13-35-40\osm.net.xml"/>
    <output-trip-file value="E:/licenta/oras-mic/2025-05-08-13-35-40\trips.trips.xml"/>
    <route-file value="e:\licenta\oras-mic\2025-05-08-13-35-40\routes.rou.xml"/>
    <prefix value="veh"/>
    <trip-attributes value="departLane=&quot;best&quot; departSpeed=&quot;0&quot; departPos=&quot;random&quot;"/>
    <fringe-factor value="3.4"/>
    <seed value="8119"/>
    <end value="600.0"/>
    <period value="2.46"/>
</configuration>
-->

<routes xmlns:xsi="http://www.w3.org/2001/XMLSchema-instance" xsi:noNamespaceSchemaLocation="http://sumo.dlr.de/xsd/routes_file.xsd">
    <trip id="veh0" depart="0.00" from="E3" to="649040853#2" departLane="best" departSpeed="0" departPos="random"/>
    <trip id="veh1" depart="2.46" from="E4" to="-649064895" departLane="best" departSpeed="0" departPos="random"/>
    <trip id="veh2" depart="4.92" from="-649040853#1" to="-258728090#0" departLane="best" departSpeed="0" departPos="random"/>
    <trip id="veh3" depart="7.38" from="-649064895" to="223632526" departLane="best" departSpeed="0" departPos="random"/>
    <trip id="veh4" depart="9.84" from="-144943776" to="649040853#2" departLane="best" departSpeed="0" departPos="random"/>
    <trip id="veh5" depart="12.30" from="-649040853#1" to="649064896#1" departLane="best" departSpeed="0" departPos="random"/>
    <trip id="veh6" depart="14.76" from="223632520#0" to="E4" departLane="best" departSpeed="0" departPos="random"/>
    <trip id="veh7" depart="17.22" from="649064896#1" to="-649064896#1" departLane="best" departSpeed="0" departPos="random"/>
    <trip id="veh8" depart="19.68" from="-223632517" to="-E1" departLane="best" departSpeed="0" departPos="random"/>
    <trip id="veh9" depart="22.14" from="-223632517" to="649036317#3" departLane="best" departSpeed="0" departPos="random"/>
    <trip id="veh10" depart="24.60" from="223632517" to="649036317#3" departLane="best" departSpeed="0" departPos="random"/>
    <trip id="veh11" depart="27.06" from="223632522" to="258728090#4" departLane="best" departSpeed="0" departPos="random"/>
    <trip id="veh12" depart="29.52" from="-144943776" to="-671642282" departLane="best" departSpeed="0" departPos="random"/>
    <trip id="veh13" depart="31.98" from="E1" to="223632520#1" departLane="best" departSpeed="0" departPos="random"/>
    <trip id="veh14" depart="34.44" from="-223632525#2" to="258728090#0" departLane="best" departSpeed="0" departPos="random"/>
    <trip id="veh15" depart="36.90" from="E4" to="-223632520#0" departLane="best" departSpeed="0" departPos="random"/>
    <trip id="veh16" depart="39.36" from="223632520#0" to="-223632520#0" departLane="best" departSpeed="0" departPos="random"/>
    <trip id="veh17" depart="41.82" from="E4" to="649036317#3" departLane="best" departSpeed="0" departPos="random"/>
    <trip id="veh18" depart="44.28" from="E3" to="649040853#1" departLane="best" departSpeed="0" departPos="random"/>
    <trip id="veh19" depart="46.74" from="649064896#1" to="649040853#2" departLane="best" departSpeed="0" departPos="random"/>
    <trip id="veh20" depart="49.20" from="-223632525#2" to="-223632525#0" departLane="best" departSpeed="0" departPos="random"/>
    <trip id="veh21" depart="51.66" from="-258728090#3" to="649040853#1" departLane="best" departSpeed="0" departPos="random"/>
    <trip id="veh22" depart="54.12" from="223632520#0" to="258728090#1" departLane="best" departSpeed="0" departPos="random"/>
    <trip id="veh23" depart="56.58" from="223632522" to="223632526" departLane="best" departSpeed="0" departPos="random"/>
    <trip id="veh24" depart="59.04" from="-258728090#4" to="223632525#1" departLane="best" departSpeed="0" departPos="random"/>
    <trip id="veh25" depart="61.50" from="E4" to="-258728090#2" departLane="best" departSpeed="0" departPos="random"/>
    <trip id="veh26" depart="63.96" from="223632525#0" to="223632526" departLane="best" departSpeed="0" departPos="random"/>
    <trip id="veh27" depart="66.42" from="-671642282" to="223632526" departLane="best" departSpeed="0" departPos="random"/>
    <trip id="veh28" depart="68.88" from="258728090#0" to="223632526" departLane="best" departSpeed="0" departPos="random"/>
    <trip id="veh29" depart="71.34" from="-E3" to="-223632525#0" departLane="best" departSpeed="0" departPos="random"/>
    <trip id="veh30" depart="73.80" from="223632520#1" to="-223632520#1" departLane="best" departSpeed="0" departPos="random"/>
    <trip id="veh31" depart="76.26" from="223632522" to="649040853#2" departLane="best" departSpeed="0" departPos="random"/>
    <trip id="veh32" depart="78.72" from="-223632525#2" to="-223632525#2" departLane="best" departSpeed="0" departPos="random"/>
    <trip id="veh33" depart="81.18" from="-E3" to="-223632520#2" departLane="best" departSpeed="0" departPos="random"/>
    <trip id="veh34" depart="83.64" from="-E2" to="649064896#1" departLane="best" departSpeed="0" departPos="random"/>
    <trip id="veh35" depart="86.10" from="223632525#1" to="649040853#2" departLane="best" departSpeed="0" departPos="random"/>
    <trip id="veh36" depart="88.56" from="-649040853#1" to="-223632525#0" departLane="best" departSpeed="0" departPos="random"/>
    <trip id="veh37" depart="91.02" from="-258728090#0" to="258728090#0" departLane="best" departSpeed="0" departPos="random"/>
    <trip id="veh38" depart="93.48" from="649040853#1" to="-223632525#0" departLane="best" departSpeed="0" departPos="random"/>
    <trip id="veh39" depart="95.94" from="258728090#4" to="E4" departLane="best" departSpeed="0" departPos="random"/>
    <trip id="veh40" depart="98.40" from="649064896#1" to="258728090#0" departLane="best" departSpeed="0" departPos="random"/>
    <trip id="veh41" depart="100.86" from="-223632526" to="E3" departLane="best" departSpeed="0" departPos="random"/>
    <trip id="veh42" depart="103.32" from="223632517" to="-223632525#2" departLane="best" departSpeed="0" departPos="random"/>
    <trip id="veh43" depart="105.78" from="-649036317#3" to="-223632520#0" departLane="best" departSpeed="0" departPos="random"/>
    <trip id="veh44" depart="108.24" from="258728090#3" to="-223632525#0" departLane="best" departSpeed="0" departPos="random"/>
    <trip id="veh45" depart="110.70" from="223632520#2" to="671642282" departLane="best" departSpeed="0" departPos="random"/>
    <trip id="veh46" depart="113.16" from="223632520#2" to="649036317#3" departLane="best" departSpeed="0" departPos="random"/>
    <trip id="veh47" depart="115.62" from="-258728090#2" to="-223632520#0" departLane="best" departSpeed="0" departPos="random"/>
    <trip id="veh48" depart="118.08" from="-E1" to="649064895" departLane="best" departSpeed="0" departPos="random"/>
    <trip id="veh49" depart="120.54" from="-649036317#3" to="223632520#2" departLane="best" departSpeed="0" departPos="random"/>
    <trip id="veh50" depart="123.00" from="-E4" to="649040853#2" departLane="best" departSpeed="0" departPos="random"/>
    <trip id="veh51" depart="125.46" from="-649036317#3" to="223632520#1" departLane="best" departSpeed="0" departPos="random"/>
    <trip id="veh52" depart="127.92" from="-E2" to="223632526" departLane="best" departSpeed="0" departPos="random"/>
    <trip id="veh53" depart="130.38" from="-258728090#2" to="649064895" departLane="best" departSpeed="0" departPos="random"/>
    <trip id="veh54" depart="132.84" from="-258728090#4" to="223632517" departLane="best" departSpeed="0" departPos="random"/>
    <trip id="veh55" depart="135.30" from="-144943776" to="258728090#1" departLane="best" departSpeed="0" departPos="random"/>
    <trip id="veh56" depart="137.76" from="258728090#1" to="-649064895" departLane="best" departSpeed="0" departPos="random"/>
    <trip id="veh57" depart="140.22" from="E1" to="649040853#2" departLane="best" departSpeed="0" departPos="random"/>
    <trip id="veh58" depart="142.68" from="-223632526" to="649064895" departLane="best" departSpeed="0" departPos="random"/>
    <trip id="veh59" depart="145.14" from="-223632525#2" to="E4" departLane="best" departSpeed="0" departPos="random"/>
    <trip id="veh60" depart="147.60" from="258728090#1" to="-223632522" departLane="best" departSpeed="0" departPos="random"/>
    <trip id="veh61" depart="150.06" from="223632520#0" to="649064896#1" departLane="best" departSpeed="0" departPos="random"/>
    <trip id="veh62" depart="152.52" from="258728090#1" to="-E2" departLane="best" departSpeed="0" departPos="random"/>
    <trip id="veh63" depart="154.98" from="E2" to="649040853#2" departLane="best" departSpeed="0" departPos="random"/>
    <trip id="veh64" depart="157.44" from="-223632526" to="-223632520#0" departLane="best" departSpeed="0" departPos="random"/>
    <trip id="veh65" depart="159.90" from="-144943776" to="-223632520#2" departLane="best" departSpeed="0" departPos="random"/>
    <trip id="veh66" depart="162.36" from="-223632526" to="-258728090#3" departLane="best" departSpeed="0" departPos="random"/>
    <trip id="veh67" depart="164.82" from="-223632520#1" to="-223632520#2" departLane="best" departSpeed="0" departPos="random"/>
    <trip id="veh68" depart="167.28" from="-649040853#1" to="-223632520#0" departLane="best" departSpeed="0" departPos="random"/>
    <trip id="veh69" depart="169.74" from="-649036317#3" to="-223632522" departLane="best" departSpeed="0" departPos="random"/>
    <trip id="veh70" depart="172.20" from="223632525#0" to="-223632522" departLane="best" departSpeed="0" departPos="random"/>
    <trip id="veh71" depart="174.66" from="223632525#1" to="-258728090#3" departLane="best" departSpeed="0" departPos="random"/>
    <trip id="veh72" depart="177.12" from="-258728090#0" to="-223632525#0" departLane="best" departSpeed="0" departPos="random"/>
    <trip id="veh73" depart="179.58" from="-649036317#3" to="-E4" departLane="best" departSpeed="0" departPos="random"/>
    <trip id="veh74" depart="182.04" from="223632520#0" to="649040853#2" departLane="best" departSpeed="0" departPos="random"/>
    <trip id="veh75" depart="184.50" from="223632520#0" to="-E4" departLane="best" departSpeed="0" departPos="random"/>
    <trip id="veh76" depart="186.96" from="E1" to="258728090#3" departLane="best" departSpeed="0" departPos="random"/>
    <trip id="veh77" depart="189.42" from="223632522" to="649040853#2" departLane="best" departSpeed="0" departPos="random"/>
    <trip id="veh78" depart="191.88" from="223632520#1" to="258728090#1" departLane="best" departSpeed="0" departPos="random"/>
    <trip id="veh79" depart="194.34" from="-649036317#3" to="-E3" departLane="best" departSpeed="0" departPos="random"/>
    <trip id="veh80" depart="196.80" from="223632525#0" to="-223632520#0" departLane="best" departSpeed="0" departPos="random"/>
    <trip id="veh81" depart="199.26" from="223632522" to="223632517" departLane="best" departSpeed="0" departPos="random"/>
    <trip id="veh82" depart="201.72" from="258728090#4" to="649040853#2" departLane="best" departSpeed="0" departPos="random"/>
    <trip id="veh83" depart="204.18" from="223632522" to="-258728090#4" departLane="best" departSpeed="0" departPos="random"/>
    <trip id="veh84" depart="206.64" from="223632520#0" to="258728090#0" departLane="best" departSpeed="0" departPos="random"/>
    <trip id="veh85" depart="209.10" from="223632525#0" to="223632525#1" departLane="best" departSpeed="0" departPos="random"/>
    <trip id="veh86" depart="211.56" from="-144943776" to="-223632522" departLane="best" departSpeed="0" departPos="random"/>
    <trip id="veh87" depart="214.02" from="-E4" to="649036317#3" departLane="best" departSpeed="0" departPos="random"/>
    <trip id="veh88" depart="216.48" from="E4" to="-258728090#4" departLane="best" departSpeed="0" departPos="random"/>
    <trip id="veh89" depart="218.94" from="-223632526" to="223632525#1" departLane="best" departSpeed="0" departPos="random"/>
    <trip id="veh90" depart="221.40" from="-258728090#0" to="-223632520#0" departLane="best" departSpeed="0" departPos="random"/>
    <trip id="veh91" depart="223.86" from="-E2" to="258728090#1" departLane="best" departSpeed="0" departPos="random"/>
    <trip id="veh92" depart="226.32" from="-258728090#3" to="-223632525#0" departLane="best" departSpeed="0" departPos="random"/>
    <trip id="veh93" depart="228.78" from="-671642282" to="258728090#4" departLane="best" departSpeed="0" departPos="random"/>
    <trip id="veh94" depart="231.24" from="-223632525#2" to="671642282" departLane="best" departSpeed="0" departPos="random"/>
    <trip id="veh95" depart="233.70" from="-144943776" to="223632526" departLane="best" departSpeed="0" departPos="random"/>
    <trip id="veh96" depart="236.16" from="-649036317#3" to="E1" departLane="best" departSpeed="0" departPos="random"/>
    <trip id="veh97" depart="238.62" from="-144943776" to="649036317#3" departLane="best" departSpeed="0" departPos="random"/>
    <trip id="veh98" depart="241.08" from="-144943776" to="-223632522" departLane="best" departSpeed="0" departPos="random"/>
    <trip id="veh99" depart="243.54" from="E2" to="-649064896#1" departLane="best" departSpeed="0" departPos="random"/>
    <trip id="veh100" depart="246.00" from="-E4" to="-E1" departLane="best" departSpeed="0" departPos="random"/>
    <trip id="veh101" depart="248.46" from="-144943776" to="258728090#4" departLane="best" departSpeed="0" departPos="random"/>
    <trip id="veh102" depart="250.92" from="223632520#0" to="-649064896#1" departLane="best" departSpeed="0" departPos="random"/>
    <trip id="veh103" depart="253.38" from="-E3" to="-223632517" departLane="best" departSpeed="0" departPos="random"/>
    <trip id="veh104" depart="255.84" from="-223632526" to="-223632522" departLane="best" departSpeed="0" departPos="random"/>
    <trip id="veh105" depart="258.30" from="649064896#1" to="-223632520#2" departLane="best" departSpeed="0" departPos="random"/>
    <trip id="veh106" depart="260.76" from="-144943776" to="649036317#3" departLane="best" departSpeed="0" departPos="random"/>
    <trip id="veh107" depart="263.22" from="E3" to="-E3" departLane="best" departSpeed="0" departPos="random"/>
    <trip id="veh108" depart="265.68" from="223632520#0" to="-223632522" departLane="best" departSpeed="0" departPos="random"/>
    <trip id="veh109" depart="268.14" from="223632520#0" to="649036317#3" departLane="best" departSpeed="0" departPos="random"/>
    <trip id="veh110" depart="270.60" from="-E1" to="-223632520#0" departLane="best" departSpeed="0" departPos="random"/>
    <trip id="veh111" depart="273.06" from="223632522" to="-223632520#2" departLane="best" departSpeed="0" departPos="random"/>
    <trip id="veh112" depart="275.52" from="-258728090#4" to="E1" departLane="best" departSpeed="0" departPos="random"/>
    <trip id="veh113" depart="277.98" from="258728090#4" to="-223632520#0" departLane="best" departSpeed="0" departPos="random"/>
    <trip id="veh114" depart="280.44" from="-258728090#4" to="649040853#2" departLane="best" departSpeed="0" departPos="random"/>
    <trip id="veh115" depart="282.90" from="-258728090#0" to="-223632522" departLane="best" departSpeed="0" departPos="random"/>
    <trip id="veh116" depart="285.36" from="-649036317#3" to="-223632522" departLane="best" departSpeed="0" departPos="random"/>
    <trip id="veh117" depart="287.82" from="649064895" to="223632525#1" departLane="best" departSpeed="0" departPos="random"/>
    <trip id="veh118" depart="290.28" from="E3" to="-223632525#2" departLane="best" departSpeed="0" departPos="random"/>
    <trip id="veh119" depart="292.74" from="223632522" to="649040853#2" departLane="best" departSpeed="0" departPos="random"/>
    <trip id="veh120" depart="295.20" from="-144943776" to="223632526" departLane="best" departSpeed="0" departPos="random"/>
    <trip id="veh121" depart="297.66" from="E3" to="223632526" departLane="best" departSpeed="0" departPos="random"/>
    <trip id="veh122" depart="300.12" from="-144943776" to="-223632525#0" departLane="best" departSpeed="0" departPos="random"/>
    <trip id="veh123" depart="302.58" from="649064896#1" to="-258728090#2" departLane="best" departSpeed="0" departPos="random"/>
    <trip id="veh124" depart="305.04" from="-649036317#3" to="E1" departLane="best" departSpeed="0" departPos="random"/>
    <trip id="veh125" depart="307.50" from="-649036317#3" to="E1" departLane="best" departSpeed="0" departPos="random"/>
    <trip id="veh126" depart="309.96" from="223632522" to="-223632525#0" departLane="best" departSpeed="0" departPos="random"/>
    <trip id="veh127" depart="312.42" from="223632525#0" to="258728090#4" departLane="best" departSpeed="0" departPos="random"/>
    <trip id="veh128" depart="314.88" from="-649064895" to="-223632525#0" departLane="best" departSpeed="0" departPos="random"/>
    <trip id="veh129" depart="317.34" from="223632522" to="649064896#1" departLane="best" departSpeed="0" departPos="random"/>
    <trip id="veh130" depart="319.80" from="223632525#0" to="649064895" departLane="best" departSpeed="0" departPos="random"/>
    <trip id="veh131" depart="322.26" from="-E1" to="-223632522" departLane="best" departSpeed="0" departPos="random"/>
    <trip id="veh132" depart="324.72" from="-649064895" to="223632526" departLane="best" departSpeed="0" departPos="random"/>
    <trip id="veh133" depart="327.18" from="E1" to="258728090#3" departLane="best" departSpeed="0" departPos="random"/>
    <trip id="veh134" depart="329.64" from="-258728090#2" to="649036317#3" departLane="best" departSpeed="0" departPos="random"/>
    <trip id="veh135" depart="332.10" from="-144943776" to="-223632520#0" departLane="best" departSpeed="0" departPos="random"/>
    <trip id="veh136" depart="334.56" from="-223632526" to="-223632517" departLane="best" departSpeed="0" departPos="random"/>
    <trip id="veh137" depart="337.02" from="-E1" to="-223632517" departLane="best" departSpeed="0" departPos="random"/>
    <trip id="veh138" depart="339.48" from="649064896#1" to="649064896#1" departLane="best" departSpeed="0" departPos="random"/>
    <trip id="veh139" depart="341.94" from="223632522" to="649036317#3" departLane="best" departSpeed="0" departPos="random"/>
    <trip id="veh140" depart="344.40" from="223632520#2" to="-649040853#1" departLane="best" departSpeed="0" departPos="random"/>
    <trip id="veh141" depart="346.86" from="649064895" to="223632526" departLane="best" departSpeed="0" departPos="random"/>
    <trip id="veh142" depart="349.32" from="223632522" to="258728090#1" departLane="best" departSpeed="0" departPos="random"/>
    <trip id="veh143" depart="351.78" from="223632525#0" to="-649064895" departLane="best" departSpeed="0" departPos="random"/>
    <trip id="veh144" depart="354.24" from="223632522" to="649040853#2" departLane="best" departSpeed="0" departPos="random"/>
    <trip id="veh145" depart="356.70" from="-258728090#3" to="649036317#3" departLane="best" departSpeed="0" departPos="random"/>
    <trip id="veh146" depart="359.16" from="223632525#1" to="649036317#3" departLane="best" departSpeed="0" departPos="random"/>
    <trip id="veh147" depart="361.62" from="-649036317#3" to="649040853#2" departLane="best" departSpeed="0" departPos="random"/>
    <trip id="veh148" depart="364.08" from="-258728090#3" to="223632525#1" departLane="best" departSpeed="0" departPos="random"/>
    <trip id="veh149" depart="366.54" from="-223632526" to="-223632520#2" departLane="best" departSpeed="0" departPos="random"/>
    <trip id="veh150" depart="369.00" from="-649064896#1" to="-E1" departLane="best" departSpeed="0" departPos="random"/>
    <trip id="veh151" depart="371.46" from="223632525#0" to="-E1" departLane="best" departSpeed="0" departPos="random"/>
    <trip id="veh152" depart="373.92" from="-649036317#3" to="-223632525#0" departLane="best" departSpeed="0" departPos="random"/>
    <trip id="veh153" depart="376.38" from="-223632517" to="-649064896#1" departLane="best" departSpeed="0" departPos="random"/>
    <trip id="veh154" depart="378.84" from="649064896#1" to="223632520#1" departLane="best" departSpeed="0" departPos="random"/>
    <trip id="veh155" depart="381.30" from="-223632526" to="649040853#2" departLane="best" departSpeed="0" departPos="random"/>
    <trip id="veh156" depart="383.76" from="-649064895" to="-258728090#4" departLane="best" departSpeed="0" departPos="random"/>
    <trip id="veh157" depart="386.22" from="258728090#3" to="649036317#3" departLane="best" departSpeed="0" departPos="random"/>
    <trip id="veh158" depart="388.68" from="-258728090#3" to="E4" departLane="best" departSpeed="0" departPos="random"/>
    <trip id="veh159" depart="391.14" from="223632525#0" to="-649064895" departLane="best" departSpeed="0" departPos="random"/>
    <trip id="veh160" depart="393.60" from="-E4" to="258728090#4" departLane="best" departSpeed="0" departPos="random"/>
    <trip id="veh161" depart="396.06" from="223632522" to="649040853#2" departLane="best" departSpeed="0" departPos="random"/>
    <trip id="veh162" depart="398.52" from="649040853#1" to="-E2" departLane="best" departSpeed="0" departPos="random"/>
    <trip id="veh163" depart="400.98" from="-258728090#0" to="-223632522" departLane="best" departSpeed="0" departPos="random"/>
    <trip id="veh164" depart="403.44" from="-649064896#1" to="-258728090#4" departLane="best" departSpeed="0" departPos="random"/>
    <trip id="veh165" depart="405.90" from="671642282" to="-258728090#0" departLane="best" departSpeed="0" departPos="random"/>
    <trip id="veh166" depart="408.36" from="258728090#0" to="649064895" departLane="best" departSpeed="0" departPos="random"/>
    <trip id="veh167" depart="410.82" from="-649064896#1" to="-223632522" departLane="best" departSpeed="0" departPos="random"/>
    <trip id="veh168" depart="413.28" from="-223632526" to="-223632525#0" departLane="best" departSpeed="0" departPos="random"/>
    <trip id="veh169" depart="415.74" from="-223632525#2" to="-223632525#0" departLane="best" departSpeed="0" departPos="random"/>
    <trip id="veh170" depart="418.20" from="-649064895" to="649040853#2" departLane="best" departSpeed="0" departPos="random"/>
    <trip id="veh171" depart="420.66" from="223632525#0" to="E2" departLane="best" departSpeed="0" departPos="random"/>
    <trip id="veh172" depart="423.12" from="223632525#0" to="223632520#2" departLane="best" departSpeed="0" departPos="random"/>
    <trip id="veh173" depart="425.58" from="649040853#1" to="-223632525#0" departLane="best" departSpeed="0" departPos="random"/>
    <trip id="veh174" depart="428.04" from="-E2" to="223632520#2" departLane="best" departSpeed="0" departPos="random"/>
    <trip id="veh175" depart="430.50" from="223632525#0" to="671642282" departLane="best" departSpeed="0" departPos="random"/>
    <trip id="veh176" depart="432.96" from="-223632520#2" to="258728090#3" departLane="best" departSpeed="0" departPos="random"/>
    <trip id="veh177" depart="435.42" from="649064896#1" to="223632526" departLane="best" departSpeed="0" departPos="random"/>
    <trip id="veh178" depart="437.88" from="649064895" to="-E1" departLane="best" departSpeed="0" departPos="random"/>
    <trip id="veh179" depart="440.34" from="-258728090#3" to="649036317#3" departLane="best" departSpeed="0" departPos="random"/>
    <trip id="veh180" depart="442.80" from="223632517" to="-223632517" departLane="best" departSpeed="0" departPos="random"/>
    <trip id="veh181" depart="445.26" from="258728090#3" to="-223632522" departLane="best" departSpeed="0" departPos="random"/>
    <trip id="veh182" depart="447.72" from="649064895" to="258728090#1" departLane="best" departSpeed="0" departPos="random"/>
    <trip id="veh183" depart="450.18" from="258728090#1" to="-223632520#0" departLane="best" departSpeed="0" departPos="random"/>
    <trip id="veh184" depart="452.64" from="649064895" to="671642282" departLane="best" departSpeed="0" departPos="random"/>
    <trip id="veh185" depart="455.10" from="E2" to="649036317#3" departLane="best" departSpeed="0" departPos="random"/>
    <trip id="veh186" depart="457.56" from="258728090#3" to="E1" departLane="best" departSpeed="0" departPos="random"/>
    <trip id="veh187" depart="460.02" from="223632520#0" to="223632520#1" departLane="best" departSpeed="0" departPos="random"/>
    <trip id="veh188" depart="462.48" from="-E3" to="223632520#2" departLane="best" departSpeed="0" departPos="random"/>
    <trip id="veh189" depart="464.94" from="E1" to="649040853#1" departLane="best" departSpeed="0" departPos="random"/>
    <trip id="veh190" depart="467.40" from="-223632520#2" to="-223632522" departLane="best" departSpeed="0" departPos="random"/>
    <trip id="veh191" depart="469.86" from="-649036317#3" to="258728090#3" departLane="best" departSpeed="0" departPos="random"/>
    <trip id="veh192" depart="472.32" from="-E3" to="223632520#1" departLane="best" departSpeed="0" departPos="random"/>
    <trip id="veh193" depart="474.78" from="E4" to="223632526" departLane="best" departSpeed="0" departPos="random"/>
    <trip id="veh194" depart="477.24" from="-258728090#3" to="649036317#3" departLane="best" departSpeed="0" departPos="random"/>
    <trip id="veh195" depart="479.70" from="-223632525#2" to="649040853#2" departLane="best" departSpeed="0" departPos="random"/>
    <trip id="veh196" depart="482.16" from="-144943776" to="-223632520#0" departLane="best" departSpeed="0" departPos="random"/>
    <trip id="veh197" depart="484.62" from="223632525#1" to="-223632520#1" departLane="best" departSpeed="0" departPos="random"/>
    <trip id="veh198" depart="487.08" from="223632520#1" to="-223632522" departLane="best" departSpeed="0" departPos="random"/>
    <trip id="veh199" depart="489.54" from="-223632520#2" to="-649040853#1" departLane="best" departSpeed="0" departPos="random"/>
    <trip id="veh200" depart="492.00" from="-E2" to="649036317#3" departLane="best" departSpeed="0" departPos="random"/>
    <trip id="veh201" depart="494.46" from="-671642282" to="-223632522" departLane="best" departSpeed="0" departPos="random"/>
    <trip id="veh202" depart="496.92" from="223632520#0" to="-223632517" departLane="best" departSpeed="0" departPos="random"/>
    <trip id="veh203" depart="499.38" from="258728090#1" to="-258728090#3" departLane="best" departSpeed="0" departPos="random"/>
    <trip id="veh204" depart="501.84" from="258728090#3" to="-223632522" departLane="best" departSpeed="0" departPos="random"/>
    <trip id="veh205" depart="504.30" from="-258728090#2" to="649064896#1" departLane="best" departSpeed="0" departPos="random"/>
    <trip id="veh206" depart="506.76" from="223632522" to="-223632525#0" departLane="best" departSpeed="0" departPos="random"/>
    <trip id="veh207" depart="509.22" from="E2" to="-E4" departLane="best" departSpeed="0" departPos="random"/>
    <trip id="veh208" depart="511.68" from="223632525#0" to="-223632522" departLane="best" departSpeed="0" departPos="random"/>
    <trip id="veh209" depart="514.14" from="-223632526" to="649040853#2" departLane="best" departSpeed="0" departPos="random"/>
    <trip id="veh210" depart="516.60" from="-223632517" to="-258728090#0" departLane="best" departSpeed="0" departPos="random"/>
    <trip id="veh211" depart="519.06" from="-223632517" to="-223632522" departLane="best" departSpeed="0" departPos="random"/>
    <trip id="veh212" depart="521.52" from="223632525#1" to="-223632517" departLane="best" departSpeed="0" departPos="random"/>
    <trip id="veh213" depart="523.98" from="258728090#1" to="-223632520#0" departLane="best" departSpeed="0" departPos="random"/>
    <trip id="veh214" depart="526.44" from="-223632526" to="223632525#1" departLane="best" departSpeed="0" departPos="random"/>
    <trip id="veh215" depart="528.90" from="-E3" to="-223632522" departLane="best" departSpeed="0" departPos="random"/>
    <trip id="veh216" depart="531.36" from="223632525#0" to="-258728090#0" departLane="best" departSpeed="0" departPos="random"/>
    <trip id="veh217" depart="533.82" from="223632520#1" to="-223632522" departLane="best" departSpeed="0" departPos="random"/>
    <trip id="veh218" depart="536.28" from="-649036317#3" to="-223632525#0" departLane="best" departSpeed="0" departPos="random"/>
    <trip id="veh219" depart="538.74" from="-649064896#1" to="-671642282" departLane="best" departSpeed="0" departPos="random"/>
    <trip id="veh220" depart="541.20" from="-223632526" to="649040853#2" departLane="best" departSpeed="0" departPos="random"/>
    <trip id="veh221" depart="543.66" from="223632520#0" to="-223632520#0" departLane="best" departSpeed="0" departPos="random"/>
    <trip id="veh222" depart="546.12" from="-649040853#1" to="223632526" departLane="best" departSpeed="0" departPos="random"/>
    <trip id="veh223" depart="548.58" from="223632522" to="-223632517" departLane="best" departSpeed="0" departPos="random"/>
    <trip id="veh224" depart="551.04" from="223632520#0" to="-223632520#0" departLane="best" departSpeed="0" departPos="random"/>
    <trip id="veh225" depart="553.50" from="-258728090#3" to="-E4" departLane="best" departSpeed="0" departPos="random"/>
    <trip id="veh226" depart="555.96" from="223632522" to="258728090#3" departLane="best" departSpeed="0" departPos="random"/>
    <trip id="veh227" depart="558.42" from="258728090#3" to="E2" departLane="best" departSpeed="0" departPos="random"/>
    <trip id="veh228" depart="560.88" from="649064895" to="649040853#1" departLane="best" departSpeed="0" departPos="random"/>
    <trip id="veh229" depart="563.34" from="-671642282" to="-223632517" departLane="best" departSpeed="0" departPos="random"/>
    <trip id="veh230" depart="565.80" from="223632520#2" to="649036317#3" departLane="best" departSpeed="0" departPos="random"/>
    <trip id="veh231" depart="568.26" from="671642282" to="223632525#1" departLane="best" departSpeed="0" departPos="random"/>