<?xml version="1.0" encoding="UTF-8"?>

<!-- generated on 2025-06-06 19:06:00.766865 by randomTrips.py v1_22_0+0002-63e50f52594
<configuration>
    <net-file value="E:/licenta/oras-mediu/2025-05-27-13-15-06\osm.net.xml"/>
    <output-trip-file value="E:/licenta/oras-mediu/2025-05-27-13-15-06\trips.vehicles.xml"/>
    <route-file value="e:\licenta\oras-mediu\2025-05-27-13-15-06\full.rou.xml"/>
    <prefix value="veh"/>
    <trip-attributes value="departLane=&quot;best&quot; departSpeed=&quot;0&quot; departPos=&quot;random&quot; type=&quot;randomDist&quot;"/>
    <fringe-factor value="2.3"/>
    <seed value="14190"/>
    <end value="1200.0"/>
    <period value="0.39"/>
</configuration>
-->

<!-- generated on 2025-06-06 19:05:59 by Eclipse SUMO duarouter Version 1.22.0
<duarouterConfiguration xmlns:xsi="http://www.w3.org/2001/XMLSchema-instance" xsi:noNamespaceSchemaLocation="http://sumo.dlr.de/xsd/duarouterConfiguration.xsd">

    <input>
        <net-file value="E:/licenta/oras-mediu/2025-05-27-13-15-06\osm.net.xml"/>
        <route-files value="E:/licenta/oras-mediu/2025-05-27-13-15-06\trips.vehicles.xml"/>
    </input>

    <output>
        <output-file value="e:\licenta\oras-mediu\2025-05-27-13-15-06\full.rou.xml"/>
        <alternatives-output value="NUL"/>
    </output>

    <time>
        <begin value="0"/>
        <end value="1200.0"/>
    </time>

    <report>
        <no-warnings value="true"/>
        <ignore-errors value="true"/>
        <no-step-log value="true"/>
    </report>

</duarouterConfiguration>
-->

<routes xmlns:xsi="http://www.w3.org/2001/XMLSchema-instance" xsi:noNamespaceSchemaLocation="http://sumo.dlr.de/xsd/routes_file.xsd">
    <vehicle id="veh0" type="randomDist" depart="0.00" departLane="best" departPos="random" departSpeed="0.00">
        <route edges="-143207982#6 -143207982#5 -143207982#4 -143207982#3 -143207982#2 -143207982#1 -143207982#0 48736620#2 48736620#3 48736620#5 48736620#6 48736633 1135770583 256557201#3 256557201#4 256557201#5 256557201#6 256557201#7 33909873 492965073#0 492965073#3 -48797771#2 647741479 48778453"/>
    </vehicle>
    <vehicle id="veh1" type="randomDist" depart="0.39" departLane="best" departPos="random" departSpeed="0.00">
        <route edges="-1250915723#0 -1250915721#0 1250915720#5 1250915720#6 353939570#9 353939570#10 33909936#0 33909936#1 33909936#2 33909936#3 33909936#4 33909936#5 1017944534 671908803#2 33909892 48778431#1 48778431#2 48778431#3 48778431#4 48778431#5 -43544001#15 -43544001#14 -43544001#13 -43544001#11 -43544001#10 48778524#0 48778524#1 48778525#0 647998062 -647998060#0 -48778525#1 -48778525#0 -48778524#1"/>
    </vehicle>
    <vehicle id="veh2" type="randomDist" depart="0.78" departLane="best" departPos="random" departSpeed="0.00">
        <route edges="48736614#1 48736618 -48736617#0 -143207982#7 -143207982#6 -143207982#5 -143207982#4 -143207982#3 -143207982#2 -143207982#1 -143207982#0 -48736610#3 -48736610#2 48736656#0 48736656#1 647689085"/>
    </vehicle>
    <vehicle id="veh3" type="randomDist" depart="1.17" departLane="best" departPos="random" departSpeed="0.00">
        <route edges="43544001#9 43544001#10 -43544138#8 -43544138#7 -43544138#6 -43544138#5 -43544138#4 -43544138#3 -43544138#2 -43544138#1 -43544138#0 43544179#10 43544184#0 43544184#1 43544184#2 43544184#3 -43573573#4 -43573573#3 -43573573#2 -43573573#1 -43573573#0 43573547#0 43573547#1 -222609002#4 -222609002#3 -222609002#2 -222609002#1 -222609002#0 -40345930 -40236144#3 48778493#0 48778493#1"/>
    </vehicle>
    <vehicle id="veh4" type="randomDist" depart="1.56" departLane="best" departPos="random" departSpeed="0.00">
        <route edges="1136119743#0 1136119744 48778495#0 48778495#1 -40330575#3 -40330575#2 -40330575#1 -40330575#0 -1158942155 48778489#3 353939585#0 353939585#1 647347140#1 647347140#2 43573573#0 43573573#1 43573573#2 43573573#3 43573573#4 -43544184#3 -43544184#2 -43544184#1 -43544184#0 -43544179#10 43544138#0 43544138#1 43544138#2 43544138#3 43544138#4 43544138#5 -43546935#0 -647226815#1"/>
    </vehicle>
    <vehicle id="veh5" type="randomDist" depart="1.95" departLane="best" departPos="random" departSpeed="0.00">
        <route edges="-43546570#1 -43546570#0 48736646#1 250295384 250295380#1 -40236203#3 -40236203#2 -40236203#1 -40236203#0 40236144#0 40236144#1 40236144#2 40236144#3 40345930 222609004#0 222609004#1 1158942155 40330575#0 40330575#1 40330575#2 40330575#3 40330575#4 -353939570#9 -1250915720#6 -1250915720#5 -1250915720#4 1250915722#0"/>
    </vehicle>
    <vehicle id="veh6" type="randomDist" depart="2.34" departLane="best" departPos="random" departSpeed="0.00">
        <route edges="-984508804 -40309190 -578560104#4 -578560104#3 48778480#0 48778480#4 48778480#5 48778480#7 48778480#9 256557201#7 256557201#8 256557201#1 256557201#2 256557201#3 470204654 -176279225#4 -176279225#3 -176279225#2 -176279225#1 -176279225#0 671606408 176279228#1 176279228#2 176279228#3 671606409 -25379984#2 -33913538#9 -33913538#8 -174817602"/>
    </vehicle>
    <vehicle id="veh7" type="randomDist" depart="2.73" departLane="best" departPos="random" departSpeed="0.00">
        <route edges="-48778505#2 -48778505#1 -48778505#0 -43573547#2 -222609002#4 -222609002#3 -222609002#2 -222609002#1 -222609002#0 222609004#0 222609004#1 1158942155 40330575#0 40330575#1 40330575#2 40330575#3 40330575#4 -353939570#9 -1250915720#6 -1250915720#5 -1250915720#4 1250915722#0 -1250915723#2"/>
    </vehicle>
    <vehicle id="veh8" type="randomDist" depart="3.12" departLane="best" departPos="random" departSpeed="0.00">
        <route edges="43544197#6 43544197#7 43544197#8 -43544179#8 -43544179#7 -43546105#3 -43546105#2 -43546105#1 -43546105#0 43573547#7 43573547#8 1378376381 40265778#0 40236144#0 1136283381 1136283379#1"/>
    </vehicle>
    <vehicle id="veh9" type="randomDist" depart="3.51" departLane="best" departPos="random" departSpeed="0.00">
        <route edges="383582499#2 383582499#3 383582499#4 43546460#6 43546460#7 43546460#8 43546460#9 43546460#10 43546460#11 43546506#0 43546506#1 40304754#0 40304754#2 40304754#3 40304754#4 40304754#5 -40236203#1 -40236203#0 40236144#0 40236144#1 40236144#2 40236144#3 40345930 222609004#0 222609004#1 1158942155 40330575#0 40330575#1 40330575#2 40330575#3 -48778495#1 -48778495#0 -1136119744 -1136119743#0"/>
    </vehicle>
    <vehicle id="veh10" type="randomDist" depart="3.90" departLane="best" departPos="random" departSpeed="0.00">
        <route edges="-1250915720#1 -1250915720#0 -222605087#2 -222605087#1 -222605087#0 353939570#8 353939570#9 353939570#10 33909936#0 33909936#1 33909936#2 33909936#3 33909936#4 33909936#5 1017944534 671908803#2 33909892 48778431#1 48778431#2 -258551283#1"/>
    </vehicle>
    <vehicle id="veh11" type="randomDist" depart="4.29" departLane="best" departPos="random" departSpeed="0.00">
        <route edges="48778457#1 1136301815#1 48778464#3 48778443#0 48778443#1 48778443#2 -647762524 -48797765#1"/>
    </vehicle>
    <vehicle id="veh12" type="randomDist" depart="4.68" departLane="best" departPos="random" departSpeed="0.00">
        <route edges="40236144#0 40236144#1 40236144#2 40236144#3 40345930 222609004#0 984508803 984508802"/>
    </vehicle>
    <vehicle id="veh13" type="randomDist" depart="5.07" departLane="best" departPos="random" departSpeed="0.00">
        <route edges="1135855912 48736613#1 48736613#2 48736613#3 48736613#4 -492965073#8 -492965073#7 -492965073#6 -492965073#5 -48797771#2 647741479 1136301813 48778441#0 48778441#2 48778441#3 -898519021 48778481#4 530106516#0"/>
    </vehicle>
    <vehicle id="veh14" type="randomDist" depart="5.46" departLane="best" departPos="random" departSpeed="0.00">
        <route edges="-647621857 48797767#2 -40299739#1 -40299739#0 -40299738 -40299241#2 -40299241#1 -40299241#0 176279225#3 176279225#4 48778484 48778481#1 48778481#2 48778481#4 48778481#8 48778481#9 48778489#0 -222609004#1 -222609004#0 222609002#0 222609002#1 222609002#2 222609002#3 222609002#4 -43573547#1 -43573547#0 -647347140#2"/>
    </vehicle>
    <vehicle id="veh15" type="randomDist" depart="5.85" departLane="best" departPos="random" departSpeed="0.00">
        <route edges="-40330575#4 -40330575#3 -40330575#2 -40330575#1 -40330575#0 222605085#0 222605085#1 222605085#2 354259928 -383582508#1"/>
    </vehicle>
    <vehicle id="veh16" type="randomDist" depart="6.24" departLane="best" departPos="random" departSpeed="0.00">
        <route edges="222605086 222605087#1 222605087#2 1250915720#0 -1250915721#2 1250915724#0"/>
    </vehicle>
    <vehicle id="veh17" type="randomDist" depart="6.63" departLane="best" departPos="random" departSpeed="0.00">
        <route edges="-40295499#1 -40295499#0 -48798094#0 -33910068#0 48736653 733560013 725328136 354250407#1 1135770581 176279228#3 176279228#4 176279228#5 75628791 671606411 725339013 48736663#6 48736663#7 48736663#1 48736663#2 48736652 353939570#0 353939570#1 353939570#2 353939570#3 353939570#5 353939570#6 353939570#7 353939570#8 353939570#9 353939570#10 33909936#0 33909936#1 33909936#2 33909936#3 33909936#4 33909936#5 1017944534 671908803#2 33909892 48778431#1 48778431#2 48778431#3 48778431#4 48778431#5 -43544001#15 -43544001#14 -43544001#13 -43544001#11 -43544001#10 -43544001#9 -43544001#8 -43544001#7 -43544001#6 -43544001#5 -859737784"/>
    </vehicle>
    <vehicle id="veh18" type="randomDist" depart="7.02" departLane="best" departPos="random" departSpeed="0.00">
        <route edges="-48797773 -48797765#0 43546648#5 48778475#0 48778475#1 48778473#0 48778473#1 48778473#2 -40236203#3 -40236203#2 -40236203#1 -40236203#0 40236144#0 40236144#1 40236144#2 40236144#3 40345930 222609004#0 222609004#1 48778489#3 353939585#0 -354259933#3 48778508#0 48778508#1 48778508#2 48778508#3 48778508#4 48778508#5 33909936#3 33909936#4 647383048"/>
    </vehicle>
    <vehicle id="veh19" type="randomDist" depart="7.41" departLane="best" departPos="random" departSpeed="0.00">
        <route edges="48778500#1 48778499#0 48778501 -48778500#0 -48778498#1 353939586#0 353939586#1 48778480#0 48778480#4 48778480#5 48778480#7 48778480#9 256557201#7 256557201#8 256557201#1 256557201#2 256557201#3 470204654 -176279225#4 -176279225#3 -176279225#2 -176279225#1 -176279225#0 671606408 176279228#1 75628811#0 75628811#1 354250406 48736660#0 48736660#1 48736660#2 672420929 33910068#0 33910068#1 40295499#0 40295499#1"/>
    </vehicle>
    <vehicle id="veh20" type="randomDist" depart="7.80" departLane="best" departPos="random" departSpeed="0.00">
        <route edges="-43544001#14 43547017#0 43547017#1 43547017#2 43547017#3 43547017#4 43547017#5 -43544179#11 -43544179#10 -43544179#9 -43544179#8 -43544179#7 -43544179#6 -43544179#5 -43544179#3 -43544179#2 -43544179#1 -43546506#1 -43546506#0 92198453#0 92198453#1 92198453#2 92198453#3 92198453#4 92198453#5 470210923#4 672409435#0 48778466#1 48778466#2 48778466#3 672409433 -251916699#2 -251916699#1 -251916699#0 -223942064#2 -223942064#1 -223942064#0 E7"/>
    </vehicle>
    <vehicle id="veh22" type="randomDist" depart="8.58" departLane="best" departPos="random" departSpeed="0.00">
        <route edges="647755347#1 -1136301812#1 -1136301812#0 48778443#0 48778443#1 48778443#2 -647762524 -48797765#1 -48797765#0 43546648#5 48778475#0 48778475#1 48778473#0 48778473#1 48778473#2 -250295380#1 -250295380#0 43546789#3 -40304754#3 -40304754#2 -40304754#1 43544179#0 43544179#2 43544179#3 43544179#4 43544179#6 43544179#7 43544179#8 43544179#9 43544138#0 43544138#1"/>
    </vehicle>
    <vehicle id="veh24" type="randomDist" depart="9.36" departLane="best" departPos="random" departSpeed="0.00">
        <route edges="43546519#2 43547296#1 43546688#1 43546688#2 250295384 250295380#1 -40236203#3 -40236203#2 -40236203#1 -40236203#0 40236144#0 40236144#1 40236144#2 40236144#3 40345930 222609004#0 222609004#1"/>
    </vehicle>
    <vehicle id="veh25" type="randomDist" depart="9.75" departLane="best" departPos="random" departSpeed="0.00">
        <route edges="48797766#0 48797766#1 48797766#2 48736637 40314853#2 40314853#3 -492965073#2 470204656 256557201#1 256557201#2 256557201#3 256557201#4 256557201#5 48778481#0 48778481#1 48778481#2 48778481#4 48778481#8 48778481#9 48778489#0 48778489#3 353939585#0 353939585#1 647347140#1 647347140#2 43573573#0 43573573#1 43573573#2 43573573#3 -48778518 -48778517#0"/>
    </vehicle>
    <vehicle id="veh26" type="randomDist" depart="10.14" departLane="best" departPos="random" departSpeed="0.00">
        <route edges="-92198453#3 -92198453#2 -92198453#1 -92198453#0 43546506#0 43546506#1 40304754#0 40304754#2 40304754#3 40304754#4 40304754#5 40236203#2 40236203#3 40236203#4 470210937 679395314 679395324 679395318 470210933 -492965073#10 -492965073#9 -492965073#8 -492965073#7 -492965073#6 -492965073#5 -492965073#4 -40314853#3 -40314853#2 -40314853#1 -256684296"/>
    </vehicle>
    <vehicle id="veh27" type="randomDist" depart="10.53" departLane="best" departPos="random" departSpeed="0.00">
        <route edges="353939570#5 353939570#6 353939570#7 353939570#8 353939570#9 353939570#10 33909936#0 33909936#1 33909936#2 33909936#3 33909936#4 33909936#5 1017944534 671908803#2 33909892 48778431#1 48778431#2 -258551283#1 -43544184#4 -43544184#3 -43544184#2 -43544184#1 -43544184#0 -43544179#10 43544138#0 43544138#1 43544138#2 43544138#3 43544138#4"/>
    </vehicle>
    <vehicle id="veh28" type="randomDist" depart="10.92" departLane="best" departPos="random" departSpeed="0.00">
        <route edges="43547017#4 43547017#5 43544179#12 48788485#6 48788485#7 48788485#8 48788485#9 1136121569 671908803#4 48778487#0 48778487#1 353939586#0 353939586#1 48778480#0 48778480#4 48778480#5 48778480#7 48778480#9 256557201#7 256557201#8 256557201#1 48736635#0 48736635#1 -48736620#6 -48736620#5 -48736620#3 -48736620#2 143207982#0 48736621#0 48736621#1 48736621#2 48736614#0 -48736619"/>
    </vehicle>
    <vehicle id="veh29" type="randomDist" depart="11.31" departLane="best" departPos="random" departSpeed="0.00">
        <route edges="48736662 -33909840#1 25379984#0 671606410 176279228#5 176279228#6 176279228#7 671606407 176279225#0 176279225#1 176279225#2 176279225#3 176279225#4 48778484 48778481#1 48778481#2 48778481#4 48778481#8 48778481#9 48778489#0 48778489#3 353939585#0 -354259933#3 48778508#0 -945794110"/>
    </vehicle>
    <vehicle id="veh31" type="randomDist" depart="12.09" departLane="best" departPos="random" departSpeed="0.00">
        <route edges="-258551321 -578560104#4 -578560104#3 48778489#0 48778489#3 353939585#0 353939585#1 353939585#2 1137794254 671908803#0 671908803#1 671908803#2 33909892 48778431#1 48778431#2 48778431#3 48778431#4 48778431#5 -43544001#15 -43544001#14 -43544001#13"/>
    </vehicle>
    <vehicle id="veh32" type="randomDist" depart="12.48" departLane="best" departPos="random" departSpeed="0.00">
        <route edges="984521613 48778474#1 470210935 679395321 679395315 470210936 -40236203#4 -40236203#3 -40236203#2 -40304754#5 -40304754#4 -40304754#3 -40304754#2 -40265774#1"/>
    </vehicle>
    <vehicle id="veh33" type="randomDist" depart="12.87" departLane="best" departPos="random" departSpeed="0.00">
        <route edges="273836978#0 273836978#1 40266621 40266909#0 40266909#1 40266908#1 647770574 48778454#0 48797771#0 48797771#2 492965073#5 492965073#6 492965073#7 492965073#8 492965073#9 492965073#10 470210935 679395321 679395315 679395322 679395314 222622620 470210923#0 470210923#1 470210923#2 470210923#3 -92198453#6 -92198453#4 -92198453#3 -92198453#2 -92198453#1 -92198453#0 -43546460#11 -43546460#10 -43546460#9 -43546460#8 -43546460#7 -43546460#6 -43546460#4 -43546460#3 -43546460#2 -43546460#1 -43546460#0"/>
    </vehicle>
    <vehicle id="veh34" type="randomDist" depart="13.26" departLane="best" departPos="random" departSpeed="0.00">
        <route edges="48778446#2 250295383#0 250295383#1 250295383#3 250295383#4 250295383#5 250295383#6 492965073#8 492965073#9 492965073#10 470210935 679395321 679395315 470210936 -40236203#4 -40236203#3 -40236203#2 -40304754#5 -40304754#4 -40304754#3 -40304754#2 -40304754#1 43544179#0 43544179#2 43544179#3 43544179#4 43544179#6 43544179#7 43544179#8 43544179#9 43544179#10 43544179#11 43544179#12 48778431#5 48778431#6 48778431#7 222605089#0 -222605089#3"/>
    </vehicle>
    <vehicle id="veh35" type="randomDist" depart="13.65" departLane="best" departPos="random" departSpeed="0.00">
        <route edges="1001108554 222605084#8 -945793491#0 -222605084#2 -222605084#1 -222605084#0 -222605087#2 -222605087#1 -222605087#0 353939570#8 353939570#9 -40330575#4 -40330575#3 -40330575#2 -40330575#1 -40330575#0 -1158942155 -222609004#1 -222609004#0 -40345930 -40236144#3 -40236144#2 -40236144#1 -40236144#0 40236203#0 40236203#1 40236203#2 40236203#3 40236203#4 470210937 679395314 222622620 470210923#0 470210923#1 470210923#2 470210923#3 470210923#4 672409435#0 48778466#1 48778466#2 48778466#3 672409433 -251916699#2 -251916699#1 -251916699#0 -223942064#2"/>
    </vehicle>
    <vehicle id="veh36" type="randomDist" depart="14.04" departLane="best" departPos="random" departSpeed="0.00">
        <route edges="-353939570#9 -353939570#8 222605087#0 222605087#1 222605087#2 222605084#0 222605084#1 -945793490#2 -945793490#1 -1251292610"/>
    </vehicle>
    <vehicle id="veh37" type="randomDist" depart="14.43" departLane="best" departPos="random" departSpeed="0.00">
        <route edges="48778461#1 1136301812#1 -1136301818 -1136301819 -48778461#0 -48778454#1 48797771#0 48797771#2 -492965073#4 -492965073#2 470204656 256557201#1 48736635#0 48736635#1 -48736620#6 -48736620#5 -48736620#3 -48736620#2 -48736620#1 -48736620#0 1017995181 43548506 48736622#0 48736622#1 -48736612#7 -48736612#6 48736602"/>
    </vehicle>
    <vehicle id="veh38" type="randomDist" depart="14.82" departLane="best" departPos="random" departSpeed="0.00">
        <route edges="-43544588#1 -43544588#0 43544197#1 43544197#2 43544197#4 43544197#5 43544197#6 43544197#7 43544197#8 -43544179#8 -43544179#7 -43544179#6 -43544179#5 -43544179#3 -43544179#2 -43544179#1 40304754#0 40304754#2 40304754#3 -43546789#3 -43546789#2 -43546789#1 43546688#0 43546688#1 43546688#2 -48736646#1 -48736646#0 470210923#1 470210923#2 470210923#3"/>
    </vehicle>
    <vehicle id="veh39" type="randomDist" depart="15.21" departLane="best" departPos="random" departSpeed="0.00">
        <route edges="-859728622 401741889#1 -470210923#1 -470210923#0 470210931 679395318 222622621 679395321 679395315 470210936 -40236203#4 -40236203#3 -40236203#2 -40236203#1 -40236203#0 40236144#0 40236144#1 40236144#2 40236144#3 40345930 222609004#0 222609004#1 1158942155 222605085#0 222605085#1 222605085#2 354259928 -92198452#2 671386628#0 671386628#1"/>
    </vehicle>
    <vehicle id="veh40" type="randomDist" depart="15.60" departLane="best" departPos="random" departSpeed="0.00">
        <route edges="-48736639#0 -43546449#0 -48778446#2 -48778446#1 -48778446#0 -492965073#4 -492965073#2 470204656 256557201#1 256557201#2 256557201#3 470204654 -176279225#4 -176279225#3 -176279225#2 -176279225#1 -176279225#0 671606408 176279228#1 75628811#0"/>
    </vehicle>
    <vehicle id="veh41" type="randomDist" depart="15.99" departLane="best" departPos="random" departSpeed="0.00">
        <route edges="48736614#2 -48736617#1 -48736617#0 -143207982#7 -143207982#6 -143207982#5 -143207982#4 -143207982#3 -143207982#2 -143207982#1 -143207982#0 48736620#2 48736620#3 48736620#5 48736620#6 48736633 1135770583 256557201#3 256557201#4 256557201#5 48778481#0 48778481#1 48778481#2 48778481#4 48778481#8 48778481#9 48778489#0 1158942155 222605085#0 222605085#1 222605085#2 354259928 -92198452#2 -92198452#1 -92198452#0"/>
    </vehicle>
    <vehicle id="veh42" type="randomDist" depart="16.38" departLane="best" departPos="random" departSpeed="0.00">
        <route edges="48736612#4 48736612#5 48736612#6 48736612#7 48736623 48736620#0 48736620#1 48736620#2 48736620#3 48736620#5 48736620#6 48736633 1135770583 256557201#3 256557201#4 256557201#5 256557201#6 256557201#7 33909873 492965073#0 492965073#3 492965073#5 492965073#6 492965073#7 492965073#8 -48736613#4 -48736613#3 -383582497"/>
    </vehicle>
    <vehicle id="veh43" type="randomDist" depart="16.77" departLane="best" departPos="random" departSpeed="0.00">
        <route edges="40299264#1 40299264#2 -40299241#1 -40299241#0 -176279225#2 -176279225#1 -176279225#0 671606408 176279228#1 176279228#2 176279228#3 176279228#4 176279228#5 75628791 671606411 725339013 48736663#6 48736663#7 48736663#1 48736663#2 48736652 353939570#0 353939570#1 353939570#2 353939570#3 353939570#5 222605086 222605087#1 222605087#2 1250915720#0"/>
    </vehicle>
    <vehicle id="veh44" type="randomDist" depart="17.16" departLane="best" departPos="random" departSpeed="0.00">
        <route edges="-48736624#0 48736610#3 48736620#2 48736620#3 48736620#5 48736620#6 48736633 1135770583 256557201#3 256557201#4 256557201#5 256557201#6 256557201#7 33909873 492965073#0 492965073#3 492965073#5 492965073#6 492965073#7 492965073#8 -48736613#4 -48736613#3 -48736613#2 -48736613#1 -48736613#0"/>
    </vehicle>
    <vehicle id="veh45" type="randomDist" depart="17.55" departLane="best" departPos="random" departSpeed="0.00">
        <route edges="-996489799#1 -996489799#0 -40265774#0 40315648#0 1378376381 40265778#0 40305706#0 40305706#1 40305706#2 354252039#0 354252039#1 40266619 40306149 273836978#0 273836978#1 40266621 40266909#0 40266909#1 E6 -40266910 -898519021 48778480#7 48778480#9 256557201#7 256557201#8 256557201#1 256557201#2 256557201#3 470204654 -176279225#4 -176279225#3 -176279225#2 -176279225#1 -176279225#0 671606408 176279228#1 75628811#0 75628811#1 354250406 48736660#0 48736660#1 48736660#2 672420929 33910068#0 33910068#1 40295499#0 40295499#1 48736605"/>
    </vehicle>
    <vehicle id="veh46" type="randomDist" depart="17.94" departLane="best" departPos="random" departSpeed="0.00">
        <route edges="-1136301812#0 48778443#0 -1135772296#1 1135772297 48778464#2"/>
    </vehicle>
    <vehicle id="veh48" type="randomDist" depart="18.72" departLane="best" departPos="random" departSpeed="0.00">
        <route edges="-25379984#2 33909840#0 48736661 48736663#1 48736663#2 48736663#3 48736663#4 222603524 -671606411 671606412 176279228#7 671606407 176279225#0 176279225#1 176279225#2 176279225#3 176279225#4 470204655 256557201#5 256557201#6 256557201#7 33909873 492965073#0 492965073#3 492965073#5 492965073#6 492965073#7 492965073#8 492965073#9 492965073#10 470210935 679395321 679395315 679395322 679395314 222622620 470210923#0 48736646#0 48736646#1 -43546688#2 -43546688#1 -43546688#0"/>
    </vehicle>
    <vehicle id="veh49" type="randomDist" depart="19.11" departLane="best" departPos="random" departSpeed="0.00">
        <route edges="48788485#0 48788485#3 48788485#4 48788485#5 48788485#6 -258551283#1 -43544184#4 -43573573#4"/>
    </vehicle>
    <vehicle id="veh50" type="randomDist" depart="19.50" departLane="best" departPos="random" departSpeed="0.00">
        <route edges="143207982#0 48736621#0 48736621#1 48736621#2 48736614#0 -48736619 -143207982#1 -143207982#0 48736620#2 48736620#3 48736620#5 48736620#6 48736633 1135770583 256557201#3 256557201#4 256557201#5 256557201#6 256557201#7 33909873 492965073#0 492965073#3 492965073#5 492965073#6 492965073#7 492965073#8 492965073#9 492965073#10 470210935 679395321 679395315 470210936 -40236203#4 -40236203#3 -40236203#2 -40304754#5 -40304754#4 -40304754#3 -40304754#2 -40304754#1 43544179#0 43544179#2 43544179#3 43544179#4 43544179#6"/>
    </vehicle>
    <vehicle id="veh51" type="randomDist" depart="19.89" departLane="best" departPos="random" departSpeed="0.00">
        <route edges="-354252035 43547256#2 -43544179#1 40304754#0 40304754#2 40304754#3 40304754#4 40304754#5 -40236203#1 -40236203#0 40236144#0 40236144#1 40236144#2 48778493#0 48778493#1 48778493#2 859732802#0 859732803#1"/>
    </vehicle>
    <vehicle id="veh52" type="randomDist" depart="20.28" departLane="best" departPos="random" departSpeed="0.00">
        <route edges="984521611#0 984521612#1 48778474#1 470210935 679395321 679395315 679395322 679395314 222622620 470210923#0 470210923#1 470210923#2 470210923#3 -92198453#6 -92198453#4 -92198453#3 -92198453#2 -92198453#1 -92198453#0 -43546460#11 -43546460#10 -43546460#9 -43546460#8 -43546460#7 -43546460#6 -43546460#4 671642318#0 -671642313"/>
    </vehicle>
    <vehicle id="veh53" type="randomDist" depart="20.67" departLane="best" departPos="random" departSpeed="0.00">
        <route edges="43546105#1 43546105#2 43546105#3 -43544179#6 -43544179#5 -43544179#3 -43544179#2 -43544179#1 40304754#0 40304754#2 40304754#3 40304754#4 40304754#5 40236203#2 40236203#3 40236203#4 470210937 679395314 679395324 679395318 470210933 -492965073#10 -492965073#9 -492965073#8 -492965073#7 -492965073#6 -492965073#5 -492965073#4 -492965073#2 470204656 256557201#1 48736635#0 48736635#1 -48736620#6 -48736620#5 48736607#0 48736607#1 48736657#0 -48736658"/>
    </vehicle>
    <vehicle id="veh54" type="randomDist" depart="21.06" departLane="best" departPos="random" departSpeed="0.00">
        <route edges="43544184#3 -43573573#4 -43573573#3 -43573573#2 -43573573#1 -43573573#0 43573547#0 43573547#1 -222609002#4 -222609002#3 -222609002#2 -222609002#1 -222609002#0 -40345930 -40236144#3 48778493#0 48778493#1 859732803#0 -859732802#0 -859732801#0 -48778493#1 -48778493#0 40236144#3"/>
    </vehicle>
    <vehicle id="veh55" type="randomDist" depart="21.45" departLane="best" departPos="random" departSpeed="0.00">
        <route edges="-1001108554 -222605084#4 -222605084#3 -222605084#2 -222605084#1 -222605084#0 -222605087#2 -222605087#1 -222605087#0 353939570#8 353939570#9 353939570#10 33909936#0 33909936#1 33909936#2 -48778508#5 -48778508#4 -48778508#3 945794109"/>
    </vehicle>
    <vehicle id="veh56" type="randomDist" depart="21.84" departLane="best" departPos="random" departSpeed="0.00">
        <route edges="-250295383#0 -48778446#2 -48778446#1 -48778446#0 -492965073#4 -492965073#2 470204656 256557201#1 48736635#0 48736635#1 -48736620#6 -48736620#5 -48736620#3 -48736620#2 -48736610#3 48736624#0 48736624#1 48736624#2"/>
    </vehicle>
    <vehicle id="veh57" type="randomDist" depart="22.23" departLane="best" departPos="random" departSpeed="0.00">
        <route edges="-43544179#3 -43544179#2 -43544179#1 40304754#0 40304754#2 40304754#3 40304754#4 40304754#5 40236203#2 40236203#3 40236203#4 470210937 679395314 679395324 679395318 470210933 -492965073#10 -492965073#9 -492965073#8 -492965073#7 -492965073#6 -492965073#5 -492965073#4 -492965073#2 470204656 256557201#1 256557201#2 256557201#3 470204654 -176279225#4 -176279225#3 40299241#0 40299276#0"/>
    </vehicle>
    <vehicle id="veh58" type="randomDist" depart="22.62" departLane="best" departPos="random" departSpeed="0.00">
        <route edges="-40299739#3 -40299739#2 -40299739#1 40299283 48797766#0 48797766#1 48797766#2 48736637 40314853#2"/>
    </vehicle>
    <vehicle id="veh59" type="randomDist" depart="23.01" departLane="best" departPos="random" departSpeed="0.00">
        <route edges="-48778427 33913538#1 33913538#2 33913538#3 33913538#4 33913538#5 33913538#6 33913538#7 33913538#8 33913538#9 25379984#0 671606410 176279228#5 176279228#6 176279228#7 176279228#0 176279228#1 75628811#0 75628811#1 354250406 48736660#0 48736660#1 48736660#2 672420929 33910068#0 33910068#1 48798094#1 48798094#2 878079387#1 223942063#1 492965072#1"/>
    </vehicle>
    <vehicle id="veh60" type="randomDist" depart="23.40" departLane="best" departPos="random" departSpeed="0.00">
        <route edges="-470210923#2 -470210923#1 -470210923#0 470210931 679395318 470210933 -492965073#10 -492965073#9 -492965073#8 -492965073#7 -492965073#6 -492965073#5 -492965073#4 -492965073#2 470204656 256557201#1 48736635#0 48736635#1 -48736620#6 -48736620#5 -48736620#3 -48736620#2 143207982#0 143207982#1 143207982#2 143207982#3 143207982#4"/>
    </vehicle>
    <vehicle id="veh61" type="randomDist" depart="23.79" departLane="best" departPos="random" departSpeed="0.00">
        <route edges="996984235 353939570#5 353939570#6 353939570#7 353939570#8 353939570#9 -40330575#4 -40330575#3 -40330575#2 -40330575#1 -40330575#0 -1158942155 -222609004#1 984508803 1136283361"/>
    </vehicle>
    <vehicle id="veh62" type="randomDist" depart="24.18" departLane="best" departPos="random" departSpeed="0.00">
        <route edges="43544179#11 43544179#12 48788485#6 48788485#7 48788485#8 48788485#9 1136121569 671908803#4 671908803#5 671908803#0 48778509 -33909936#5 -33909936#4 -33909936#3 -33909936#2 -33909936#1 354259933#0 354259933#1 859734514#0 859734514#1"/>
    </vehicle>
    <vehicle id="veh63" type="randomDist" depart="24.57" departLane="best" departPos="random" departSpeed="0.00">
        <route edges="383582505 -48778429#0 -647610982#2 -647610982#1 -647610982#0 -92198451#0 671593845 48778466#3 48778466#4 48778466#5 671593846#0 -470210923#4 -470210923#3 -470210923#2 -470210923#1 -470210923#0 470210931 679395318 222622621 679395321 679395315 470210936 -40236203#4 -40236203#3 -40236203#2 -40236203#1 -40236203#0 40236144#0 40236144#1 40236144#2 40236144#3 40345930 222609004#0 222609004#1 1158942155 222605085#0 222605085#1 222605085#2 -353939570#10 -40330575#4"/>
    </vehicle>
    <vehicle id="veh64" type="randomDist" depart="24.96" departLane="best" departPos="random" departSpeed="0.00">
        <route edges="383582501 33913538#6 33913538#7 33913538#8 33913538#9 25379984#0 671606410 176279228#5 176279228#6 176279228#7 671606407 176279225#0 176279225#1 176279225#2 176279225#3 176279225#4 470204655 256557201#5 256557201#6 256557201#7 33909873 492965073#0 492965073#3 492965073#5 492965073#6 492965073#7 492965073#8 492965073#9 492965073#10 470210935 679395321 679395315 679395322 679395314 222622620 470210923#0 470210923#1 470210923#2 470210923#3 470210923#4 672409435#0 48778466#1 48778466#2 48778466#3 672409433 -251916699#2 -251916699#1 -251916699#0 -223942064#2 1135856746#0 1135856746#1 1135856746#2 48736613#0 48736613#1"/>
    </vehicle>