<?xml version="1.0" encoding="UTF-8"?>

<!-- generated on 2025-05-27 13:15:11 by Eclipse SUMO polyconvert Version 1.22.0
<polyconvertConfiguration xmlns:xsi="http://www.w3.org/2001/XMLSchema-instance" xsi:noNamespaceSchemaLocation="http://sumo.dlr.de/xsd/polyconvertConfiguration.xsd">

    <input>
        <net-file value="osm.net.xml.gz"/>
        <osm-files value="osm_bbox.osm.xml.gz"/>
        <osm.keep-full-type value="true"/>
        <osm.merge-relations value="1"/>
        <type-file value="${SUMO_HOME}\data\typemap\osmPolyconvert.typ.xml"/>
    </input>

    <output>
        <output-file value="osm.poly.xml.gz"/>
    </output>

    <report>
        <verbose value="true"/>
    </report>

</polyconvertConfiguration>
-->

<additional xmlns:xsi="http://www.w3.org/2001/XMLSchema-instance" xsi:noNamespaceSchemaLocation="http://sumo.dlr.de/xsd/additional_file.xsd">
    <location netOffset="-553779.28,-5163136.22" convBoundary="-30.88,-0.00,3319.52,4468.43" origBoundary="27.702430,46.619548,27.745851,46.659602" projParameter="+proj=utm +zone=35 +ellps=WGS84 +datum=WGS84 +units=m +no_defs"/>

    <poly id="1001108552" type="building.retail" color="255,230,230" fill="1" layer="-1.00" shape="2617.594330,2059.637802 2650.525132,2046.377018 2622.766533,1982.107354 2629.636642,1971.036525 2648.097591,1958.129379 2669.102928,1944.901602 2675.591335,1941.095056 2669.963948,1935.508188 2649.679906,1909.269867 2591.044183,1952.850714 2609.099995,2043.044685 2617.594330,2059.637802"/>
    <poly id="1030186954" type="building.yes" color="255,230,230" fill="1" layer="-1.00" shape="1724.195928,1544.116797 1730.710774,1534.919769 1746.736173,1546.191182 1736.281259,1560.963903 1729.253529,1556.020706 1733.193478,1550.456104 1724.195928,1544.116797"/>
    <poly id="1030186955" type="building.yes" color="255,230,230" fill="1" layer="-1.00" shape="1678.718560,1555.655923 1691.199528,1538.645834 1701.305255,1546.017661 1695.948541,1553.313966 1708.213763,1562.261459 1714.585982,1553.585404 1724.562350,1560.867179 1711.073594,1579.245919 1678.718560,1555.655923"/>
    <poly id="1030186956" type="building.yes" color="255,230,230" fill="1" layer="-1.00" shape="1729.446606,1592.439175 1737.962899,1581.193589 1745.800809,1587.099956 1737.284509,1598.345531 1729.446606,1592.439175"/>
    <poly id="1030186957" type="building.yes" color="255,230,230" fill="1" layer="-1.00" shape="1366.959742,2250.715575 1371.761527,2242.891610 1390.059760,2254.071766 1385.265714,2261.884674 1366.959742,2250.715575"/>
    <poly id="1054663911" type="building.yes" color="255,230,230" fill="1" layer="-1.00" shape="1832.557557,1468.858648 1835.392590,1465.250893 1832.230866,1462.776926 1842.726751,1449.416072 1848.145774,1453.655571 1841.693260,1461.875123 1843.836556,1463.550694 1836.973454,1472.299880 1832.557557,1468.858648"/>
    <poly id="1054663912" type="building.yes" color="255,230,230" fill="1" layer="-1.00" shape="1827.274387,1458.186095 1836.528338,1446.680736 1840.586333,1449.918640 1831.332378,1461.423993 1827.274387,1458.186095"/>
    <poly id="1054663913" type="building.yes" color="255,230,230" fill="1" layer="-1.00" shape="1785.114172,1424.481406 1797.006189,1411.633410 1801.735346,1415.977639 1789.843327,1428.825625 1785.114172,1424.481406"/>
    <poly id="1054663914" type="building.yes" color="255,230,230" fill="1" layer="-1.00" shape="1830.356112,1423.664760 1841.366068,1432.600950 1846.522683,1426.280853 1835.520378,1417.344725 1830.356112,1423.664760"/>
    <poly id="1054663915" type="building.yes" color="255,230,230" fill="1" layer="-1.00" shape="1813.802320,1410.732452 1821.353888,1416.991885 1825.959750,1411.455704 1818.408077,1405.207377 1813.802320,1410.732452"/>
    <poly id="1054663916" type="building.yes" color="255,230,230" fill="1" layer="-1.00" shape="1790.460680,1390.892168 1791.802428,1377.369121 1797.829325,1377.958057 1796.495218,1391.481173 1790.460680,1390.892168"/>
    <poly id="1054663917" type="building.yes" color="255,230,230" fill="1" layer="-1.00" shape="1798.136054,1398.675166 1799.833962,1390.534004 1810.484972,1392.743575 1808.787050,1400.884735 1798.136054,1398.675166"/>
    <poly id="1054663918" type="building.yes" color="255,230,230" fill="1" layer="-1.00" shape="1836.821790,1377.483944 1837.844701,1367.002878 1845.401294,1367.739317 1844.370716,1378.220312 1836.821790,1377.483944"/>
    <poly id="1054663919" type="building.yes" color="255,230,230" fill="1" layer="-1.00" shape="1853.042157,1385.901437 1854.491375,1370.701358 1860.594922,1371.279950 1859.145689,1386.480028 1853.042157,1385.901437"/>
    <poly id="1054663920" type="building.yes" color="255,230,230" fill="1" layer="-1.00" shape="1759.870677,1414.980865 1772.989964,1401.032840 1777.984088,1405.701761 1764.872454,1419.649845 1759.870677,1414.980865"/>
    <poly id="1054663921" type="building.yes" color="255,230,230" fill="1" layer="-1.00" shape="1741.956871,1406.736955 1752.766995,1393.323276 1757.942004,1397.471543 1747.131875,1410.885213 1741.956871,1406.736955"/>
    <poly id="1054663922" type="building.yes" color="255,230,230" fill="1" layer="-1.00" shape="1675.883446,1407.729459 1668.703721,1386.815834 1674.440172,1384.857144 1681.612122,1405.781817 1675.883446,1407.729459"/>
    <poly id="1054663923" type="building.yes" color="255,230,230" fill="1" layer="-1.00" shape="1657.541176,1417.773548 1651.373400,1406.692966 1659.052255,1402.451758 1665.220123,1413.521235 1657.541176,1417.773548"/>
    <poly id="1054663924" type="building.yes" color="255,230,230" fill="1" layer="-1.00" shape="1684.017715,1403.081295 1677.484042,1384.340597 1689.671694,1380.118650 1692.498395,1388.234767 1686.508217,1390.313349 1690.207511,1400.937870 1684.017715,1403.081295"/>
    <poly id="1054663925" type="building.yes" color="255,230,230" fill="1" layer="-1.00" shape="1557.250195,1476.250711 1551.391342,1465.695368 1557.524061,1462.251087 1563.533243,1473.107860 1557.250195,1476.250711"/>
    <poly id="1054663926" type="building.yes" color="255,230,230" fill="1" layer="-1.00" shape="1475.201475,1535.741150 1466.652439,1519.682637 1476.164776,1514.146680 1479.765786,1521.325199 1476.848078,1523.120973 1481.799570,1532.456635 1475.201475,1535.741150"/>
    <poly id="1054663927" type="building.yes" color="255,230,230" fill="1" layer="-1.00" shape="1520.961162,1505.900291 1530.325220,1515.709845 1535.414201,1510.877984 1526.050144,1501.068422 1520.961162,1505.900291"/>
    <poly id="1054663928" type="building.yes" color="255,230,230" fill="1" layer="-1.00" shape="1592.339280,1538.170984 1596.755831,1533.210761 1604.592207,1540.139305 1596.424322,1549.310179 1590.372446,1543.953817 1594.116124,1539.743087 1592.339280,1538.170984"/>
    <poly id="1054663929" type="building.yes" color="255,230,230" fill="1" layer="-1.00" shape="1484.077981,1491.815753 1480.741320,1485.862062 1490.097682,1480.646969 1496.190960,1491.526670 1491.105011,1494.358287 1488.348385,1489.432284 1484.077981,1491.815753"/>
    <poly id="1054663930" type="building.yes" color="255,230,230" fill="1" layer="-1.00" shape="1456.653370,1466.349628 1465.655350,1459.708814 1470.593271,1466.355042 1461.598847,1473.007031 1456.653370,1466.349628"/>
    <poly id="1054663931" type="building.yes" color="255,230,230" fill="1" layer="-1.00" shape="1490.967862,1459.196115 1499.040968,1453.680346 1503.656759,1460.390326 1495.583657,1465.906090 1490.967862,1459.196115"/>
    <poly id="1054663932" type="building.yes" color="255,230,230" fill="1" layer="-1.00" shape="1481.160811,1449.260327 1489.270685,1444.745033 1493.142278,1451.637105 1485.032308,1456.163505 1481.160811,1449.260327"/>
    <poly id="1054663933" type="building.yes" color="255,230,230" fill="1" layer="-1.00" shape="1502.172786,1449.408389 1517.804461,1437.727630 1523.196826,1444.900369 1507.565158,1456.581114 1502.172786,1449.408389"/>
    <poly id="1054663934" type="building.yes" color="255,230,230" fill="1" layer="-1.00" shape="1445.002335,1428.715024 1452.504841,1416.959686 1458.471804,1420.748221 1450.961739,1432.492370 1445.002335,1428.715024"/>
    <poly id="1054663935" type="building.yes" color="255,230,230" fill="1" layer="-1.00" shape="1570.947960,1430.058197 1569.522532,1424.388700 1579.458690,1421.912813 1582.818924,1435.301243 1575.767711,1437.059038 1573.832888,1429.340109 1570.947960,1430.058197"/>
    <poly id="1054663936" type="building.yes" color="255,230,230" fill="1" layer="-1.00" shape="1628.184834,1430.972574 1622.634894,1420.964526 1625.874083,1419.182887 1624.563831,1416.814938 1627.903144,1414.967543 1628.625937,1416.285493 1632.903902,1413.924419 1635.885899,1419.308184 1633.446859,1420.652655 1636.594495,1426.337988 1628.184834,1430.972574"/>
    <poly id="1054663938" type="building.yes" color="255,230,230" fill="1" layer="-1.00" shape="1561.963911,1552.383347 1565.919712,1545.074072 1573.400002,1549.098866 1569.444194,1556.408136 1561.963911,1552.383347"/>
    <poly id="1054663940" type="building.yes" color="255,230,230" fill="1" layer="-1.00" shape="1610.805670,1560.410556 1621.916814,1546.666029 1627.521033,1551.584911 1616.564400,1565.175268 1610.805670,1560.410556"/>
    <poly id="1054663941" type="building.yes" color="255,230,230" fill="1" layer="-1.00" shape="1658.000498,1606.028784 1670.187461,1591.838606 1677.757309,1598.598106 1668.657901,1609.171647 1666.539208,1607.318558 1663.606061,1610.792135 1658.000498,1606.028784"/>
    <poly id="1054663942" type="building.yes" color="255,230,230" fill="1" layer="-1.00" shape="1712.309245,1604.694516 1725.969609,1616.744245 1730.161992,1612.026537 1716.493971,1599.976729 1712.309245,1604.694516"/>
    <poly id="1054663944" type="building.apartments" color="255,230,230" fill="1" layer="-1.00" shape="1801.427004,1593.179750 1807.994142,1584.961213 1811.368288,1587.637157 1827.902309,1566.953016 1824.300167,1564.097156 1831.912895,1554.565858 1842.248027,1562.773501 1837.655726,1568.509824 1839.525170,1569.993952 1818.197282,1596.690363 1815.765417,1594.767658 1810.971797,1600.757740 1801.427004,1593.179750"/>
    <poly id="1054663945" type="building.apartments" color="255,230,230" fill="1" layer="-1.00" shape="1842.261697,1543.026150 1849.824864,1533.894478 1853.152582,1536.625580 1869.184496,1517.292682 1866.008837,1514.674102 1874.601492,1504.318433 1883.148430,1511.365028 1877.807013,1517.805630 1880.390133,1519.929785 1858.652961,1546.144429 1856.396524,1544.290003 1851.287356,1550.454950 1842.261697,1543.026150"/>
    <poly id="1054663946" type="building.apartments" color="255,230,230" fill="1" layer="-1.00" shape="1902.885141,1174.417686 1896.255670,1159.465334 1933.980029,1141.444104 1921.138576,1092.029098 1932.367825,1088.876726 1933.942407,1094.947748 1937.916286,1094.050969 1947.596323,1131.812808 1943.618258,1133.165167 1945.669676,1138.996116 1942.150808,1140.363829 1946.047375,1147.834291 1939.255897,1151.260989 1941.087151,1155.234063 1902.885141,1174.417686"/>
    <poly id="1054663947" type="building.apartments" color="255,230,230" fill="1" layer="-1.00" shape="1814.281818,1220.796683 1809.258060,1209.359761 1877.221912,1174.636508 1871.748403,1161.339545 1864.951481,1164.532907 1858.548447,1150.749533 1876.352160,1142.779167 1892.795162,1181.058933 1814.281818,1220.796683"/>
    <poly id="1054663948" type="building.apartments" color="255,230,230" fill="1" layer="-1.00" shape="1734.649013,1202.605180 1746.405783,1185.355167 1756.887952,1192.641636 1745.664679,1208.485213 1751.785281,1212.219886 1745.735915,1219.876497 1746.228607,1223.737176 1753.139176,1237.291732 1758.708534,1234.375879 1757.581391,1232.076265 1773.920742,1223.469805 1775.046448,1225.924989 1784.574207,1221.289788 1783.372059,1218.822785 1793.615007,1213.838575 1794.822065,1215.772210 1800.827889,1212.849303 1805.653069,1223.406476 1745.778364,1253.526472 1731.628890,1224.658540 1732.604379,1214.321492 1739.015466,1205.623593 1734.649013,1202.605180"/>
    <poly id="1054663949" type="building.apartments" color="255,230,230" fill="1" layer="-1.00" shape="1802.294401,1114.325534 1809.839307,1103.071095 1808.249051,1102.011839 1833.399069,1064.482288 1848.746237,1074.703090 1826.972754,1107.196257 1840.166492,1115.985865 1835.547799,1122.888793 1830.221627,1119.339163 1828.102444,1122.509007 1817.153285,1115.218113 1812.977193,1121.447255 1802.294401,1114.325534"/>
    <poly id="1054663950" type="building.apartments" color="255,230,230" fill="1" layer="-1.00" shape="1886.919845,1079.389174 1883.333594,1068.143261 1925.101602,1057.482617 1911.972352,1012.676802 1895.409184,1017.246883 1890.283527,1001.086013 1909.143804,995.648094 1910.684710,1000.396374 1917.731546,998.349988 1920.115540,1007.140003 1923.283540,1006.469144 1925.499560,1014.379698 1929.200680,1013.180349 1939.601736,1048.326201 1935.723032,1049.690596 1937.941112,1056.545458 1925.607123,1059.943216 1929.538966,1071.892454 1893.584888,1081.373189 1892.205495,1078.204422 1886.919845,1079.389174"/>
    <poly id="1054663951" type="building.apartments" color="255,230,230" fill="1" layer="-1.00" shape="2017.247703,1088.638731 2012.538218,1074.704160 1994.606651,1080.728205 1978.979756,1034.532268 1981.160764,1033.796753 1965.524851,987.723016 2007.978052,973.413151 2002.984643,958.709183 1960.323946,973.094957 1961.725017,977.230754 1954.759576,979.577887 1957.748069,988.395727 1954.207787,989.585432 1956.689384,996.920586 1953.771118,997.904894 1967.563843,1038.816338 1965.060300,1039.660006 1978.710995,1080.181220 1983.833081,1078.472734 1986.142955,1085.328464 1989.552643,1084.182023 1992.145795,1091.862722 1999.287701,1089.461701 2000.867402,1094.143688 2017.247703,1088.638731"/>
    <poly id="1054663952" type="building.apartments" color="255,230,230" fill="1" layer="-1.00" shape="1859.605688,1057.689499 1854.066772,1053.960082 1852.747288,1055.914883 1849.589830,1053.785448 1854.828675,1046.054788 1856.776470,1047.361835 1858.934174,1044.170131 1860.592821,1045.285595 1868.625823,1033.424524 1867.499746,1032.669579 1869.246006,1030.096401 1867.663497,1029.026088 1872.467657,1021.947089 1874.810955,1023.535610 1873.576995,1025.346729 1879.465803,1029.323872 1885.954083,1019.771151 1870.653687,1009.450673 1866.571379,1015.458389 1864.098658,1013.790888 1846.240167,1040.119149 1844.695727,1039.071418 1834.706987,1053.814935 1853.613965,1066.535607 1859.605688,1057.689499"/>
    <poly id="1054663954" type="building.apartments" color="255,230,230" fill="1" layer="-1.00" shape="1656.482496,1298.890112 1650.587610,1287.256402 1715.607246,1254.493499 1699.787181,1223.298813 1712.346609,1216.980006 1734.061302,1259.819622 1656.482496,1298.890112"/>
    <poly id="1054663955" type="building.apartments" color="255,230,230" fill="1" layer="-1.00" shape="1573.641499,1318.376989 1578.219127,1311.729083 1580.593369,1308.272561 1594.396832,1317.345052 1603.229061,1313.392178 1602.190365,1311.460127 1639.276618,1292.697779 1640.142413,1294.283750 1645.088570,1291.695454 1650.437226,1302.790724 1597.629309,1329.643260 1589.887306,1329.916696 1573.641499,1318.376989"/>
    <poly id="1054663956" type="building.apartments" color="255,230,230" fill="1" layer="-1.00" shape="1573.641499,1318.376989 1564.034730,1311.632282 1566.890282,1307.446725 1564.966495,1306.028863 1600.237102,1255.711480 1611.063478,1263.867654 1584.159888,1302.526632 1582.416654,1301.454918 1576.185112,1309.810129 1578.219127,1311.729083 1573.641499,1318.376989"/>
    <poly id="1116113446" type="building.yes" color="255,230,230" fill="1" layer="-1.00" shape="2692.706204,3584.648194 2691.650275,3596.073457 2730.659636,3599.639506 2731.707882,3588.225288 2692.706204,3584.648194"/>
    <poly id="1116113447" type="building.yes" color="255,230,230" fill="1" layer="-1.00" shape="2690.788163,3620.302576 2690.105973,3627.775156 2729.245313,3631.331303 2729.927551,3623.858728 2690.788163,3620.302576"/>
    <poly id="1116113448" type="building.yes" color="255,230,230" fill="1" layer="-1.00" shape="2734.638862,3572.705841 2734.487240,3580.716808 2745.803204,3580.934027 2745.947293,3572.911877 2734.638862,3572.705841"/>
    <poly id="1116113449" type="building.yes" color="255,230,230" fill="1" layer="-1.00" shape="2739.465513,3551.703291 2739.122323,3560.557041 2748.523911,3560.911898 2748.867010,3552.069260 2739.465513,3551.703291"/>
    <poly id="1116113450" type="building.yes" color="255,230,230" fill="1" layer="-1.00" shape="2737.346144,3527.990758 2737.080100,3536.778553 2748.808200,3537.121882 2749.074261,3528.334087 2737.346144,3527.990758"/>
    <poly id="1116113923" type="building.church" color="255,230,230" fill="1" layer="-1.00" shape="2601.380129,4097.797562 2601.806318,4106.225117 2626.686311,4104.979879 2626.267808,4096.552394 2601.380129,4097.797562"/>
    <poly id="1116113924" type="building.yes" color="255,230,230" fill="1" layer="-1.00" shape="2602.601170,4081.784200 2602.644756,4086.940988 2622.770508,4086.784777 2622.726939,4081.627990 2602.601170,4081.784200"/>
    <poly id="1116113983" type="natural.tree_row" color="140,196,107" fill="0" layer="-4.00" shape="2552.965053,4075.096895 2640.011141,4071.954841 2644.338151,4284.896095"/>
    <poly id="1116769318" type="building.apartments" color="255,230,230" fill="1" layer="-1.00" shape="2418.462710,2829.533337 2428.761203,2824.928585 2413.517433,2791.058986 2417.867347,2789.121435 2410.009364,2771.645472 2400.118155,2776.065133 2403.597313,2783.798758 2407.713904,2792.938544 2402.948881,2795.072267 2407.237959,2804.591497 2413.971290,2819.556584 2418.462710,2829.533337"/>
    <poly id="1135772293" type="building.yes" color="255,230,230" fill="1" layer="-1.00" shape="1983.968074,1505.306182 1986.469249,1494.761010 1984.099448,1491.094099 1996.885284,1476.821199 2000.457193,1476.320810 2005.134174,1471.385513 2016.960133,1483.930130 1998.121817,1497.080192 1996.882261,1496.190818 1989.297711,1506.777892 1983.968074,1505.306182"/>
    <poly id="1135772294" type="building.yes" color="255,230,230" fill="1" layer="-1.00" shape="1748.635826,1783.889586 1763.610032,1797.018337 1774.733529,1784.418822 1759.759418,1771.278931 1748.635826,1783.889586"/>
    <poly id="1135772295" type="building.yes" color="255,230,230" fill="1" layer="-1.00" shape="1719.777231,1827.186240 1723.633099,1822.420982 1720.502648,1819.891793 1738.791002,1797.289928 1742.035552,1799.897966 1747.261974,1793.433963 1758.788869,1802.697047 1747.863812,1816.198557 1745.234749,1814.085145 1738.552618,1822.358253 1740.239536,1823.707318 1730.468194,1835.785924 1719.777231,1827.186240"/>
    <poly id="1135772298" type="building.yes" color="255,230,230" fill="1" layer="-1.00" shape="1817.417351,1888.105767 1811.684953,1878.873741 1821.007758,1873.114326 1826.747699,1882.357543 1817.417351,1888.105767"/>
    <poly id="1135772299" type="building.apartments" color="255,230,230" fill="1" layer="-1.00" shape="1836.966223,1977.033000 1827.558405,1969.611795 1837.657138,1956.891819 1840.256105,1958.938319 1849.843681,1946.869306 1846.925607,1944.564265 1871.560633,1913.564470 1885.915485,1924.898659 1878.535097,1934.176437 1873.747604,1930.398353 1859.033132,1948.921036 1862.270304,1951.484622 1847.749518,1969.764637 1844.671851,1967.335884 1836.966223,1977.033000"/>
    <poly id="1135854134" type="building.yes" color="255,230,230" fill="1" layer="-1.00" shape="1877.618572,1773.020920 1889.020548,1755.990164 1897.724225,1761.771373 1886.322235,1778.802113 1877.618572,1773.020920"/>
    <poly id="1135854135" type="building.yes" color="255,230,230" fill="1" layer="-1.00" shape="1895.873082,1779.045840 1901.700708,1772.154117 1910.792883,1779.794773 1906.280909,1785.131725 1901.161354,1780.828253 1899.845597,1782.394129 1895.873082,1779.045840"/>
    <poly id="1135854136" type="building.apartments" color="255,230,230" fill="1" layer="-1.00" shape="1910.777861,1759.035880 1904.455811,1753.976745 1905.384971,1752.829589 1902.193633,1750.266406 1906.444671,1745.004832 1904.195465,1743.206017 1909.670120,1736.411058 1906.493878,1733.870238 1914.570396,1723.843247 1913.628259,1723.078876 1918.770018,1716.692027 1920.221495,1717.838937 1923.907558,1713.250041 1927.608041,1716.217999 1925.927593,1718.313917 1931.277117,1722.586194 1926.739247,1728.234050 1928.608516,1729.729319 1917.689882,1743.308377 1945.425085,1765.467912 1940.174846,1771.998203 1938.655115,1770.783980 1934.132889,1776.398637 1924.064812,1768.337758 1925.257189,1766.870764 1912.628530,1756.741500 1910.777861,1759.035880"/>
    <poly id="1135854137" type="building.yes" color="255,230,230" fill="1" layer="-1.00" shape="2058.167580,1700.600322 2079.987502,1695.245929 2077.458181,1684.020777 2076.358612,1682.899312 2074.947215,1682.386166 2058.407427,1686.266996 2056.971610,1687.565019 2055.842107,1689.677114 2055.826267,1691.388342 2058.167580,1700.600322"/>
    <poly id="1135854138" type="building.yes" color="255,230,230" fill="1" layer="-1.00" shape="2039.227711,1720.650376 2036.948902,1710.472166 2047.894736,1708.050848 2050.165976,1718.217880 2039.227711,1720.650376"/>
    <poly id="1135854139" type="building.yes" color="255,230,230" fill="1" layer="-1.00" shape="2031.563968,1750.572983 2029.802237,1742.422094 2035.140507,1741.282414 2034.296577,1737.351777 2043.032727,1735.476760 2043.392458,1737.135900 2046.414457,1736.485985 2048.668116,1746.897337 2031.563968,1750.572983"/>
    <poly id="1135854140" type="building.yes" color="255,230,230" fill="1" layer="-1.00" shape="2027.903129,1770.631104 2026.021664,1761.356712 2034.925447,1759.561024 2035.159787,1760.707814 2041.647803,1759.400974 2041.157086,1757.007175 2051.656123,1754.881777 2053.801579,1765.403257 2027.903129,1770.631104"/>
    <poly id="1135854141" type="building.yes" color="255,230,230" fill="1" layer="-1.00" shape="1998.800826,1753.137042 1994.383538,1735.804640 2001.112548,1734.099923 2002.020918,1737.686653 2024.080193,1732.089791 2026.547339,1741.769661 2004.265613,1747.420021 2005.299681,1751.485765 1998.800826,1753.137042"/>
    <poly id="1135854142" type="building.yes" color="255,230,230" fill="1" layer="-1.00" shape="1948.647229,1734.037274 1942.620150,1722.735417 1947.558748,1720.113962 1953.585822,1731.415824 1948.647229,1734.037274"/>
    <poly id="1135854144" type="building.yes" color="255,230,230" fill="1" layer="-1.00" shape="1958.002090,1738.102098 1951.711084,1725.542044 1958.032359,1722.399957 1964.323356,1734.960018 1958.002090,1738.102098"/>
    <poly id="1135854145" type="building.yes" color="255,230,230" fill="1" layer="-1.00" shape="1968.939473,1737.414161 1963.369424,1726.360989 1973.940496,1721.413464 1979.411951,1732.365719 1968.939473,1737.414161"/>
    <poly id="1135854146" type="building.yes" color="255,230,230" fill="1" layer="-1.00" shape="2002.141419,1712.239396 1996.685141,1697.164403 2009.810837,1692.451704 2011.885874,1698.182888 2006.885946,1699.981375 2009.341686,1706.760685 2007.398502,1707.465047 2008.324084,1710.018444 2002.141419,1712.239396"/>
    <poly id="1135854147" type="building.yes" color="255,230,230" fill="1" layer="-1.00" shape="2085.622945,1800.881103 2083.401879,1791.092356 2092.706530,1788.989307 2094.927582,1798.778058 2085.622945,1800.881103"/>
    <poly id="1135854148" type="building.yes" color="255,230,230" fill="1" layer="-1.00" shape="2101.302625,1802.226527 2098.461047,1789.187079 2110.173408,1786.639623 2113.014858,1799.690188 2101.302625,1802.226527"/>
    <poly id="1135854149" type="building.yes" color="255,230,230" fill="1" layer="-1.00" shape="2181.602656,1819.317950 2176.558855,1806.046887 2189.866305,1801.536299 2194.197431,1814.889662 2181.602656,1819.317950"/>
    <poly id="1135854150" type="building.yes" color="255,230,230" fill="1" layer="-1.00" shape="2168.418539,1792.380384 2182.347950,1787.664404 2178.584597,1776.638899 2165.891489,1780.932954 2166.718520,1783.374335 2165.489953,1783.785228 2168.418539,1792.380384"/>
    <poly id="1135854151" type="building.yes" color="255,230,230" fill="1" layer="-1.00" shape="2131.345953,1830.453698 2144.109939,1827.582672 2142.131672,1818.862984 2129.367565,1821.745126 2131.345953,1830.453698"/>
    <poly id="1135854152" type="building.yes" color="255,230,230" fill="1" layer="-1.00" shape="2144.372847,1821.517503 2141.290152,1808.075736 2153.517687,1805.277545 2156.607907,1818.730502 2144.372847,1821.517503"/>
    <poly id="1135854153" type="building.yes" color="255,230,230" fill="1" layer="-1.00" shape="2147.491689,1805.466152 2126.969305,1809.609912 2124.926928,1799.544983 2139.620827,1796.580705 2140.469964,1800.767002 2146.298477,1799.587514 2147.491689,1805.466152"/>
    <poly id="1135854154" type="building.yes" color="255,230,230" fill="1" layer="-1.00" shape="2138.423643,1858.012454 2135.498917,1842.394038 2146.195609,1840.403992 2149.120309,1856.022414 2138.423643,1858.012454"/>
    <poly id="1135854156" type="building.yes" color="255,230,230" fill="1" layer="-1.00" shape="2089.069768,1855.188090 2085.649899,1837.642594 2097.068220,1835.425776 2093.589703,1817.601912 2106.004942,1815.194313 2112.055726,1846.199611 2099.947325,1848.543362 2100.802385,1852.918626 2089.069768,1855.188090"/>
    <poly id="1135854157" type="building.yes" color="255,230,230" fill="1" layer="-1.00" shape="2062.734399,1844.809321 2072.405215,1846.965846 2074.249222,1838.781653 2064.578496,1836.614013 2062.734399,1844.809321"/>
    <poly id="1135854158" type="building.yes" color="255,230,230" fill="1" layer="-1.00" shape="2065.094833,1834.585145 2076.530755,1837.080291 2079.096148,1825.391125 2072.908330,1824.044737 2072.500998,1825.874582 2069.804275,1825.293971 2069.516693,1826.591510 2066.972844,1826.034541 2065.094833,1834.585145"/>
    <poly id="1135854159" type="building.yes" color="255,230,230" fill="1" layer="-1.00" shape="2016.757910,1853.374130 2031.315792,1851.853000 2030.238806,1841.674797 2021.887111,1842.553232 2022.189299,1845.467589 2015.990643,1846.121468 2016.757910,1853.374130"/>
    <poly id="1135854160" type="building.yes" color="255,230,230" fill="1" layer="-1.00" shape="2016.494657,1861.973024 2015.808090,1855.098945 2034.042859,1853.289563 2034.729303,1860.174756 2016.494657,1861.973024"/>
    <poly id="1135854161" type="building.yes" color="255,230,230" fill="1" layer="-1.00" shape="2042.678937,1930.859243 2059.358208,1933.336211 2061.290545,1932.142802 2062.320403,1930.040898 2056.409694,1912.827968 2049.606839,1915.087580 2053.059053,1925.009953 2043.658857,1923.400490 2042.678937,1930.859243"/>
    <poly id="1135854162" type="building.yes" color="255,230,230" fill="1" layer="-1.00" shape="2140.411499,1974.682296 2151.790948,1970.853863 2148.535142,1961.233297 2137.155677,1965.061736 2140.411499,1974.682296"/>
    <poly id="1135854163" type="building.yes" color="255,230,230" fill="1" layer="-1.00" shape="2187.938675,1975.456499 2183.409406,1962.845856 2185.859231,1961.979560 2183.254950,1954.743166 2195.020767,1950.529449 2197.736853,1958.089158 2195.985794,1958.717452 2200.403223,1971.004795 2187.938675,1975.456499"/>
    <poly id="1135854164" type="building.yes" color="255,230,230" fill="1" layer="-1.00" shape="2229.698829,1959.263783 2225.298409,1946.798771 2240.012336,1941.645699 2244.405077,1954.110651 2229.698829,1959.263783"/>
    <poly id="1135854165" type="building.yes" color="255,230,230" fill="1" layer="-1.00" shape="2186.094566,1948.990838 2229.005389,1934.197897 2226.478098,1926.917747 2227.668268,1926.517624 2224.268680,1916.728988 2222.847962,1917.226987 2221.163058,1912.377260 2203.884939,1918.340041 2205.808385,1923.880973 2204.840900,1924.205378 2207.062557,1930.604767 2182.635343,1939.023868 2186.094566,1948.990838"/>
    <poly id="1135854166" type="building.yes" color="255,230,230" fill="1" layer="-1.00" shape="2190.982701,1909.730097 2218.679365,1899.574440 2212.638662,1883.215832 2194.949860,1889.708244 2198.384665,1899.008224 2188.376752,1902.671492 2190.982701,1909.730097"/>
    <poly id="1135854167" type="building.yes" color="255,230,230" fill="1" layer="-1.00" shape="2118.932190,1903.738900 2117.068863,1890.875198 2128.803618,1889.194790 2130.666920,1902.058496 2118.932190,1903.738900"/>
    <poly id="1135854168" type="building.yes" color="255,230,230" fill="1" layer="-1.00" shape="2065.148726,1911.441979 2074.720416,1908.585705 2071.341806,1897.330461 2062.952096,1899.842072 2065.060996,1906.862680 2063.879001,1907.207347 2065.148726,1911.441979"/>
    <poly id="1135854169" type="building.yes" color="255,230,230" fill="1" layer="-1.00" shape="2075.750876,1908.072944 2083.971783,1905.604239 2081.677010,1897.992922 2073.448440,1900.461560 2075.750876,1908.072944"/>
    <poly id="1135854170" type="building.yes" color="255,230,230" fill="1" layer="-1.00" shape="2021.793651,1921.331213 2038.827092,1923.589144 2040.145704,1913.444219 2023.118347,1911.353034 2021.793651,1921.331213"/>
    <poly id="1135854171" type="building.yes" color="255,230,230" fill="1" layer="-1.00" shape="2027.833930,1910.485410 2028.550163,1902.568590 2018.729830,1901.688725 2019.394886,1894.338185 2040.266825,1896.220454 2039.124795,1908.789609 2036.753831,1908.578750 2036.514740,1911.254729 2027.833930,1910.485410"/>
    <poly id="1135854172" type="building.yes" color="255,230,230" fill="1" layer="-1.00" shape="2003.956711,1871.869716 2003.812223,1866.800930 2002.058849,1866.851392 2001.715678,1855.124185 2009.211594,1854.904576 2009.311907,1858.128224 2012.229202,1858.032966 2012.631728,1871.616566 2003.956711,1871.869716"/>
    <poly id="1135854173" type="building.yes" color="255,230,230" fill="1" layer="-1.00" shape="1987.733090,1846.582482 1980.570480,1834.758894 1988.468177,1829.997828 1993.240730,1837.876497 1988.968618,1840.448512 1991.366321,1844.393509 1987.733090,1846.582482"/>
    <poly id="1135854174" type="building.yes" color="255,230,230" fill="1" layer="-1.00" shape="2055.579297,1807.381753 2053.910297,1793.353027 2055.565425,1793.168316 2055.160515,1789.775156 2065.191512,1788.590040 2066.178475,1796.911574 2063.948574,1797.168750 2065.027940,1806.257924 2055.579297,1807.381753"/>