<?xml version="1.0" encoding="UTF-8"?>

<!-- generated on 2025-06-06 19:06:04 by Eclipse SUMO duarouter Version 1.22.0
<duarouterConfiguration xmlns:xsi="http://www.w3.org/2001/XMLSchema-instance" xsi:noNamespaceSchemaLocation="http://sumo.dlr.de/xsd/duarouterConfiguration.xsd">

    <input>
        <net-file value="e:\licenta\oras-mediu\2025-05-27-13-15-06\osm.net.xml"/>
        <additional-files value="e:\licenta\oras-mediu\2025-05-27-13-15-06\vtypes.xml"/>
        <route-files value="e:\licenta\oras-mediu\2025-05-27-13-15-06\trips.pedestrians.xml"/>
    </input>

    <output>
        <output-file value="e:\licenta\oras-mediu\2025-05-27-13-15-06\ped.rou.xml"/>
    </output>

</duarouterConfiguration>
-->

<routes xmlns:xsi="http://www.w3.org/2001/XMLSchema-instance" xsi:noNamespaceSchemaLocation="http://sumo.dlr.de/xsd/routes_file.xsd">
    <person id="ped0" depart="0.00">
        <walk edges="-222605084#7 -222605084#8 -222605084#9 -945793490#4 -945793491#1"/>
    </person>
    <person id="ped1" depart="5.00">
        <walk edges="48778520 43547017#5 1232511776#0"/>
    </person>
    <person id="ped2" depart="10.00">
        <walk edges="-859732801#1 859732801#1 48778493#2 48778493#1 48778493#0 40236144#2 40236144#1 40236144#0 40305706#0 40236220#0 40236220#1 40266620 40236153#1 40236232#1"/>
    </person>
    <person id="ped3" depart="15.00">
        <walk edges="222605084#5 222605084#4 -222605084#3 -222605084#2 -222605084#1 -222605084#0 222605087#3 1251292611 -1250915722#3 -1250915722#2"/>
    </person>
    <person id="ped4" depart="20.00">
        <walk edges="-43544197#8 43544179#8 43544179#7 43544179#6"/>
    </person>
    <person id="ped5" depart="25.00">
        <walk edges="-43544001#9 -48778524#0 48778524#1 48778525#0"/>
    </person>
    <person id="ped6" depart="30.00">
        <walk edges="-40330575#2 -40330575#3 48778495#1 -48778496"/>
    </person>
    <person id="ped7" depart="35.00">
        <walk edges="-48797765#2 671622981#3 647755347#0 647755347#1 -1136301812#1 -1136301812#0 48778464#3 48778464#2 48778464#1 48778456#0 48778456#1 48797771#2 48778446#0 48778446#1 1054663943"/>
    </person>
    <person id="ped8" depart="40.00">
        <walk edges="-222605084#2 -222605084#1 -222605084#0 1250915720#0 -1250915720#0 -222605087#2"/>
    </person>
    <person id="ped9" depart="45.00">
        <walk edges="-1250915723#0 -1250915720#3 -1250915720#4 1250915720#4 1250915720#3 1250915723#1"/>
    </person>
    <person id="ped10" depart="50.00">
        <walk edges="48778521#0 48778521#1 -48778521#1"/>
    </person>
    <person id="ped11" depart="55.00">
        <walk edges="40314853#2 40314853#3 492965073#3 48797771#2 48778456#1 48778456#0"/>
    </person>
    <person id="ped12" depart="60.00">
        <walk edges="48778526 43546935#3 43547017#1 -43547017#2 -43547017#3"/>
    </person>
    <person id="ped13" depart="65.00">
        <walk edges="43546519#2 -43547296#1 -43546688#1 -43546688#2 -250295384 -250295380#1 40236203#3 40236203#2 40236203#1 -40236203#0"/>
    </person>
    <person id="ped14" depart="70.00">
        <walk edges="-48736620#6 48736635#1 48736635#0 256557201#1 470204656 -492965073#2 40314853#3 40314853#2"/>
    </person>
    <person id="ped15" depart="75.00">
        <walk edges="43544624#0 -43544179#6 -43544179#5 -43544179#3 43546064#0 -354252035 -43547256#1"/>
    </person>
    <person id="ped16" depart="80.00">
        <walk edges="-48736637 40314853#2 40314853#3 -492965073#2 470204656 256557201#1 48736635#0 48736635#1 -48736620#6 -48736620#5 -48736620#3 -48736620#2 143207982#0 143207982#1 143207982#2 143207982#3 143207982#4 143207982#5 143207982#6 143207982#7 143207982#8 40314583#1 40314583#2"/>
    </person>
    <person id="ped17" depart="85.00">
        <walk edges="40265793#0 40265793#1 48778505#3 -43546105#1 43546105#2 -43546105#3 43544179#6 43544179#4 43544179#3 43544179#2 -43544179#1"/>
    </person>
    <person id="ped18" depart="90.00">
        <walk edges="-530103972 492965073#6 48778464#0 48778464#1 48778464#2 48778464#3 -1136301812#0 -1136301812#1 647755347#1 -647755347#0 671622981#1 256555440#0 -43546648#2 43546648#0 40266619 354252039#1 354252039#0 40236228#1 -40306162#1"/>
    </person>
    <person id="ped19" depart="95.00">
        <walk edges="273836978#1 40266621 40266909#0 40266909#1 40266908#1 647770574 48778454#0 48797771#0 48797771#2 48778446#0 48778446#1 48778446#2 250295383#0 48736641 48797769 -48797769"/>
    </person>
    <person id="ped20" depart="100.00">
        <walk edges="176279225#0 671606407 176279228#7 671606412 -671606411 222603524 48736663#4 1135770582 -48736666#0 48736666#1 48736665 -48736664#0"/>
    </person>
    <person id="ped21" depart="105.00">
        <walk edges="43544202#1 -143207979#5 -43544197#5 43546057 43544138#5 43546935#1 43546935#2 -43546935#3"/>
    </person>
    <person id="ped22" depart="110.00">
        <walk edges="-40304754#3 43546789#3 43546789#2 43546789#1 -43546688#0 43546688#1 -43546785 -43546570#0"/>
    </person>
    <person id="ped23" depart="115.00">
        <walk edges="48778441#2 48778441#3 -898519021 48778480#7 48778480#9 256557201#6 256557201#5 470204655 -176279225#4 -176279225#3 40299241#0 40299241#1 -40299264#2"/>
    </person>
    <person id="ped24" depart="120.00">
        <walk edges="647741479 48797771#0 48778454#0 647770574 40266908#1 40266909#1 40266909#0 40266621 273836978#1 273836978#0 40306149 40266619 354252039#1 354252039#0 40236228#1 40306162#1 40236232#0 -40236153#1"/>
    </person>
    <person id="ped25" depart="125.00">
        <walk edges="-43546088 -43544138#3 143207979#7 143207979#8 43547017#3 48778521#0"/>
    </person>
    <person id="ped26" depart="130.00">
        <walk edges="671606412 176279228#7 671606407 -176279225#0 -176279225#1 -176279225#2 -40299241#0 40299241#1 40299241#2 40299241#3 40299739#0 40299283 48797766#0"/>
    </person>
    <person id="ped27" depart="135.00">
        <walk edges="40314883 40299276#1 40299276#0 40299241#0 -176279225#3 -176279225#4 470204653 48736633 48736620#6 -48736620#5 -48736620#3 -48736620#2 -143207982#0 -48736621#0 -48736621#1 48736621#2"/>
    </person>
    <person id="ped28" depart="140.00">
        <walk edges="-945793485#1 -945793485#0 273836978#1 40266621 40266909#0 40266909#1 40266908#1 647770574 48778454#0 48797771#0 48797771#2 48778446#0 48778446#1 48778446#2 250295383#0 -250295383#1 -250295513"/>
    </person>
    <person id="ped29" depart="145.00">
        <walk edges="222609002#3 -222609002#4 -48778503#0 -48778503#1"/>
    </person>
    <person id="ped30" depart="150.00">
        <walk edges="304695350#2 -48736638#0 40314853#3 -492965073#2 470204656 256557201#1 48736635#0 48736635#1"/>
    </person>
    <person id="ped31" depart="155.00">
        <walk edges="-1250915720#4 -1250915720#5 -1250915720#6 353939570#9 -40330575#4 -40330575#3 -40330575#2 -40330575#1 -40330575#0 222605085#0 48778494#0 -48797774 -1136117604 -354259933#2"/>
    </person>
    <person id="ped32" depart="160.00">
        <walk edges="1136301819 48778461#0 -48778454#1 48797771#0 48797771#2 492965073#3 -492965073#2"/>
    </person>
    <person id="ped33" depart="165.00">
        <walk edges="354259933#0 250295381 222605085#1 222605085#0 -40330575#0 -40330575#1 -40330575#2 -40330575#3 48778495#1"/>
    </person>
    <person id="ped34" depart="170.00">
        <walk edges="945793485#0 273836978#0 40306149 -43546648#1 -43546648#2 -256555440#1 671622981#2 -48797765#2 647762524"/>
    </person>
    <person id="ped35" depart="175.00">
        <walk edges="-647226815#0 -647226815#1 -43546935#0 -43546935#1 -43546935#2 -43546935#3 -43547017#0"/>
    </person>
    <person id="ped36" depart="180.00">
        <walk edges="48778493#1 48778493#0 -40236144#3 -40345930 222609002#0 222609002#1 222609002#2 -222609002#3 -222609002#4 43573547#2"/>
    </person>
    <person id="ped37" depart="185.00">
        <walk edges="48736613#3 -48797768 250295383#5 250295383#4 250295383#3 250295383#1 250295383#0 48778446#2 -48778446#1"/>
    </person>
    <person id="ped38" depart="190.00">
        <walk edges="-43544138#8 -43544138#7 -43544138#6 -43544138#5 -43544138#4 -43544138#3 -43544138#2 43544138#1 43544138#0 -43544179#10 -43544184#0 -48778522 1136289990"/>
    </person>
    <person id="ped39" depart="195.00">
        <walk edges="43547017#0 43544001#12 43544001#11"/>
    </person>
    <person id="ped40" depart="200.00">
        <walk edges="-48736632#1 143207982#6 143207982#5 143207982#4 143207982#3 143207982#2 143207982#1 143207982#0 -48736620#2 -48736620#3 -48736620#5 -48736620#6 48736635#1 48736635#0 256557201#1 470204656 -492965073#2 40314853#3 40314853#2 -48736637 848060815 -40299283 -40299739#0"/>
    </person>
    <person id="ped41" depart="205.00">
        <walk edges="40236220#0 40236220#1 -40236220#2 -40236203#1 40236203#2 40236203#3 250295380#1 250295384"/>
    </person>
    <person id="ped42" depart="210.00">
        <walk edges="143207982#5 143207982#4 143207982#3 143207982#2 143207982#1 143207982#0 48736620#1"/>
    </person>
    <person id="ped43" depart="215.00">
        <walk edges="43573769#0 43573573#3 43573573#4 43544184#4 258551283#1 48778431#3"/>
    </person>
    <person id="ped44" depart="220.00">
        <walk edges="43573547#1 43573547#0 -43573573#0 -43573573#1 43573573#2 43573573#3 -48778518 48778517#1"/>
    </person>
    <person id="ped45" depart="225.00">
        <walk edges="-354259933#3 353939585#0 48778489#3"/>
    </person>
    <person id="ped46" depart="230.00">
        <walk edges="48736607#0 48736620#3 48736620#2 -48736610#3 48736624#0 48736624#1"/>
    </person>
    <person id="ped47" depart="235.00">
        <walk edges="-43546519#2 -43547296#0 -43546570#1 -43546570#0 -48736646#0 470210923#1 -470210923#2 -470210923#3 -470210923#4"/>
    </person>
    <person id="ped48" depart="240.00">
        <walk edges="648182739#0 40295499#0 33910068#1 33910068#0 672420929 48736660#2 48736659 -48736612#0 -48736612#1 -48736612#2 -48736612#3"/>
    </person>
    <person id="ped49" depart="245.00">
        <walk edges="40269009#1 -40269009#1 40269009#0 945793485#1 945793485#0 273836978#0 40306149 -43546648#1 -43546648#2 256555440#0 671622981#1 -647755347#0 647755347#1 -1136301812#1 -1136301812#0 48778464#3 48778464#2 48778464#1 48778464#0 -492965073#6 -492965073#7 -492965073#8 48736613#4 48736613#3"/>
    </person>
    <person id="ped50" depart="250.00">
        <walk edges="-43573547#7 -43573547#6 -43573547#5 43573547#3 43573547#2 48778503#0 48778504"/>
    </person>
    <person id="ped51" depart="255.00">
        <walk edges="-48778473#0 -48778473#1 48778473#2 40236203#3 40236203#2"/>
    </person>
    <person id="ped52" depart="260.00">
        <walk edges="48778446#1 -48736638#2 -48736638#1 -48736638#0 -40314853#2 -48736637 848060815 48797766#0 40314876 -40314876"/>
    </person>
    <person id="ped53" depart="265.00">
        <walk edges="-48736638#0 40314853#3 -492965073#2 470204656 256557201#1 48736635#0 48736635#1 -48736620#6 -48736620#5 -48736620#3 -48736620#2 143207982#0 143207982#1 143207982#2 143207982#3 143207982#4 48736632#0"/>
    </person>
    <person id="ped54" depart="270.00">
        <walk edges="-48736614#2 48736618 -48736617#0 -143207982#7 143207982#6 143207982#5 143207982#4 143207982#3 143207982#2 143207982#1 143207982#0 -48736620#2 -48736620#3 -48736620#5 48736620#6 48736633 1135770583 256557201#3 470204654"/>
    </person>
    <person id="ped55" depart="275.00">
        <walk edges="-40304754#1 -40304754#2 -40304754#3 -40304754#4 -40304754#5 40236203#1 40236203#0"/>
    </person>
    <person id="ped56" depart="280.00">
        <walk edges="48736620#2 143207982#0 143207982#1 143207982#2 -40314583#7 48736616#0 48736616#1"/>
    </person>
    <person id="ped57" depart="285.00">
        <walk edges="48778508#2 -48778508#1 48778508#0 -1136117604 -48778486 -48778485#1"/>
    </person>
    <person id="ped58" depart="290.00">
        <walk edges="1136301812#1 1136301812#0 48778464#3 48778464#2 48778464#1 48778464#0 -492965073#6 -492965073#7 250295383#6 -48736644"/>
    </person>
    <person id="ped59" depart="295.00">
        <walk edges="40266620 -40236153#0 -40236203#3 48778473#2 -48778473#1 -48778473#0 -48778475#1 48778475#0 43546648#5 43546648#4"/>
    </person>
    <person id="ped60" depart="300.00">
        <walk edges="-48778505#3 43546105#0"/>
    </person>
    <person id="ped61" depart="305.00">
        <walk edges="222605089#2 -222605089#1 -222605089#0 48788485#3 -43544001#15 -43544001#14 -43544001#13"/>
    </person>
    <person id="ped62" depart="310.00">
        <walk edges="470210923#1 -470210923#0 470210931 679395318 470210933 -492965073#10 -492965073#9 -48736613#4 48736613#3"/>
    </person>
    <person id="ped63" depart="315.00">
        <walk edges="48736652 353939570#0 -40334245#2"/>
    </person>
    <person id="ped64" depart="320.00">
        <walk edges="-48778521#0 -48778521#1"/>
    </person>
    <person id="ped65" depart="325.00">
        <walk edges="-43546789#3 43546789#2 43546789#1"/>
    </person>
    <person id="ped66" depart="330.00">
        <walk edges="43544001#15 -43544001#14 43547017#0"/>
    </person>
    <person id="ped67" depart="335.00">
        <walk edges="1378376381 -43573547#10 -43573547#7 -43573547#6 -43573547#5 -43573547#3 -43573547#2 -222609002#4 -222609002#3 222609002#2"/>
    </person>
    <person id="ped68" depart="340.00">
        <walk edges="-40329447 354252039#1 40266619 43546648#0 -43546648#2 256555440#0 671622981#1 -647755347#0 -647755347#1 1136301818 48797772"/>
    </person>
    <person id="ped69" depart="345.00">
        <walk edges="33909936#2 -33909936#1 354259933#0 250295381 222605085#2 -353939570#10 -40330575#4 -48778495#1 -48778495#0 -1136119744 1136119743#1 -1136119743#1"/>
    </person>
    <person id="ped70" depart="350.00">
        <walk edges="48778524#0 -43544001#9 -43544001#8 -43544001#7 -43544001#6 43544001#5"/>
    </person>
    <person id="ped71" depart="355.00">
        <walk edges="43547296#1 -43546688#0 43546789#1 43546789#2 43546789#3 -40304754#3 40265775#0 40265775#1 1378376381"/>
    </person>
    <person id="ped72" depart="360.00">
        <walk edges="-43546506#0 92198453#0"/>
    </person>
    <person id="ped73" depart="365.00">
        <walk edges="43573547#2 -222609002#4 -222609002#3 222609002#2 222609002#1 222609002#0 -222609004#0 -222609004#1 -1158942155 -40330575#0 -40330575#1 -40330575#2 -40330575#3 48778495#1 48778495#0 1136119744"/>
    </person>
    <person id="ped74" depart="370.00">
        <walk edges="-43546789#3 43546789#2 43546789#1 -43546688#0 43546688#1 -43546785"/>
    </person>
    <person id="ped75" depart="375.00">
        <walk edges="-40236228#1 40305706#2 40305706#1 40305706#0 -40236144#0 -40236144#1"/>
    </person>
    <person id="ped76" depart="380.00">
        <walk edges="40299283 848060815 -48736637 40314853#2 40314853#3 -492965073#2 470204656 256557201#1 48736635#0 48736635#1 -48736620#6 -48736620#5 -48736620#3 -48736620#2 143207982#0 143207982#1 143207982#2 143207982#3 143207982#4 143207982#5 143207982#6 -143207982#7 -48736617#0 -48736617#1"/>
    </person>
    <person id="ped77" depart="385.00">
        <walk edges="-43546785 -43546570#0 -48736646#0 470210923#1 470210923#2 470210923#3 92198453#5 92198453#4 92198453#3 92198453#2 -92198453#1"/>
    </person>
    <person id="ped78" depart="390.00">
        <walk edges="1001108554 -1001108554 -222605084#4 -222605084#3 -222605084#2 222605084#1 222605084#0 222605087#2 222605087#1 -222605087#0 -353939570#7 40330557#0 -40345956#3 -40345956#2"/>
    </person>
    <person id="ped79" depart="395.00">
        <walk edges="43548506 1017995181 48736620#0 48736620#1 -48736610#3 -48736610#2 48736656#0"/>
    </person>
    <person id="ped80" depart="400.00">
        <walk edges="-40330571#3 40330575#0 1158942155 222609004#1 -222609004#0 222609002#0 222609002#1 222609002#2 222609002#3 222609002#4 -43573547#1 -1136284448 1136284448"/>
    </person>
    <person id="ped81" depart="405.00">
        <walk edges="43547017#1 43547017#0 -43544001#14 -43544001#15 48788485#3 -222605089#0 -222605089#1 222605089#2"/>
    </person>
    <person id="ped82" depart="410.00">
        <walk edges="43547017#3 43547017#4 -48778520"/>
    </person>
    <person id="ped83" depart="415.00">
        <walk edges="1250915720#0 1250915721#2 1250915721#1 1250915721#0 -1250915720#5 -1250915720#6 353939570#9 353939570#10 354259928 -92198452#2 671386628#0 -671386628#1"/>
    </person>
    <person id="ped84" depart="420.00">
        <walk edges="-48736610#0 -48736610#1 -48736610#2 48736610#3 143207982#0 143207982#1 143207982#2 143207982#3 143207982#4 143207982#5 143207982#6 143207982#7 143207982#8 40314583#1 40314583#2"/>
    </person>
    <person id="ped85" depart="425.00">
        <walk edges="-48778517#1 48778517#1 -48778518 -43573573#4 43544184#3 43544184#2 43544184#1 43544184#0 43544179#10 -43544138#0"/>
    </person>
    <person id="ped86" depart="430.00">
        <walk edges="40314583#6 40314583#7 143207982#3 143207982#4 143207982#5 143207982#6 -143207982#7 -48736617#0 48736618 -48736614#1"/>
    </person>
    <person id="ped87" depart="435.00">
        <walk edges="48778441#3 -48778441#2 -48778441#0 1136301814#0 1136301814#1 48778454#0 -48778454#1 48778461#0"/>
    </person>
    <person id="ped88" depart="440.00">
        <walk edges="48736612#0 48736659 48736660#2 672420929 33910068#0 -33910068#0"/>
    </person>
    <person id="ped89" depart="445.00">
        <walk edges="-43546688#2 -250295384 -250295380#1 40236203#3 40236203#2 -40304754#5"/>
    </person>
    <person id="ped90" depart="450.00">
        <walk edges="40299264#0 40299241#3 40299739#0 -40299283 848060815 -48736637 -40314853#1"/>
    </person>
    <person id="ped91" depart="455.00">
        <walk edges="-353939570#8 -353939570#9 40330575#4 -40330575#3 -40330575#2 -40330575#1 -40330575#0 222605085#0 48778494#0 -48797774 48778486 -48778485#0"/>
    </person>
    <person id="ped92" depart="460.00">
        <walk edges="1232511776#1 1232511776#0 43547017#5 43547017#4 43547017#3 43547017#2 43547017#1 43546935#3 43546935#2 43544046 43544001#11"/>
    </person>
    <person id="ped93" depart="465.00">
        <walk edges="-48797765#0 -43546648#5 -43546648#7 -43546648#8 679395321 470210935 470210933 679395318 470210931 222622620 679395314 470210937"/>
    </person>
    <person id="ped94" depart="470.00">
        <walk edges="-43547296#0 -43547296#1 -43546688#1 -43546688#2 -250295384 -250295380#1 40236203#3 40236203#2 -40236203#1 -40236220#2 40236220#1"/>
    </person>
    <person id="ped95" depart="475.00">
        <walk edges="-143207982#6 143207982#7"/>
    </person>
    <person id="ped96" depart="480.00">
        <walk edges="-43546092 -43544138#1 -43544138#2 43544138#3 143207979#7 143207979#8 43547017#2 43547017#1"/>
    </person>
    <person id="ped97" depart="485.00">
        <walk edges="-40306149 -43546648#1 -43546648#2 256555440#0 671622981#1 -647755347#0 647755347#1 -1136301812#1 -1136301812#0 48778464#3 48778464#2"/>
    </person>
    <person id="ped98" depart="490.00">
        <walk edges="671642291 -48778524#2 -48778524#1 -48778524#0 43544001#10 -43544138#8 -43544138#7 -43544138#6 -43544138#5 -43544138#4 -143207979#6"/>
    </person>
    <person id="ped99" depart="495.00">
        <walk edges="40269009#2 -40269009#2 -40269009#1 40269009#0 945793485#1 945793485#0 273836978#0 40306149 -43546648#1 -43546648#2 256555440#0 671622981#1 -647755347#0 -647755347#1 -1136301818 -48797772"/>
    </person>
    <person id="ped100" depart="500.00">
        <walk edges="-48778449#0 48778441#0 1136301813 647741479 48797771#2 48778446#0 48778446#1 48778446#2 250295383#0 250295383#1 250295383#3 250295383#4 -530103975#1 1135854210"/>
    </person>
    <person id="ped101" depart="505.00">
        <walk edges="-353939570#2 -353939570#1 -353939570#0 48736651 -48736666#0 -48736650#0 -48736650#1 -48736650#2 176279225#2 176279225#3 -176279225#4 470204655 256557201#5 256557201#6 48778480#9 48778480#7 -898519021"/>
    </person>
    <person id="ped102" depart="510.00">
        <walk edges="40299241#3 40299241#2 40299241#1 -40299241#0 -176279225#2 -176279225#1 176279225#1 -48736650#2 -48736650#1 -48736650#0 -48736666#1"/>
    </person>
    <person id="ped103" depart="515.00">
        <walk edges="-48778449#0 48778441#2 48778441#3 -898519021 48778480#7 48778480#9 256557201#6 256557201#5 470204655 -176279225#4 176279225#3 176279225#2 -48736650#2 -48736650#1 -48736650#0 -48736666#1 -48736666#2"/>
    </person>
    <person id="ped104" depart="520.00">
        <walk edges="-40236144#0 40305706#0 40236220#0 -40236220#1"/>
    </person>
    <person id="ped105" depart="525.00">
        <walk edges="-143207979#8 143207979#7 43544138#3 -43544138#2"/>
    </person>
    <person id="ped106" depart="530.00">
        <walk edges="-304695350#1 304695350#0 -48736638#2 -48778446#1 -48778446#2 -43546449#0 -48736639#0"/>
    </person>
    <person id="ped107" depart="535.00">
        <walk edges="1135770582 48736663#4 222603524 671606411"/>
    </person>
    <person id="ped108" depart="540.00">
        <walk edges="-48736616#1 -48736616#0 -40314583#7 143207982#2 143207982#1 143207982#0 -48736620#2 -48736620#3 -48736620#5 48736620#6 48736633 1135770583 256557201#3 470204654"/>
    </person>
    <person id="ped109" depart="545.00">
        <walk edges="48778480#0 -578560104#3 578560104#4 578560104#5 578560104#6 40236144#1 40236144#0 40305706#0 40236220#0 40236228#0 -40306162#1"/>
    </person>
    <person id="ped110" depart="550.00">
        <walk edges="40265780#0 -43573547#10 1378376381 40265778#0 -40236144#0 -1136283380 1136283379#0"/>
    </person>
    <person id="ped111" depart="555.00">
        <walk edges="-40330571#3 -40330575#1 -40330575#2 -40330575#3 -40330575#4 353939570#9 -1250915720#6 -1250915720#5 -1250915720#4"/>
    </person>
    <person id="ped112" depart="560.00">
        <walk edges="-1136301812#1 -1136301812#0 48778464#3 1136301815#1 -48778454#1 48778454#0 647770574 40266908#1"/>
    </person>
    <person id="ped113" depart="565.00">
        <walk edges="-40330575#1 -40330575#2 -40330575#3 -40330575#4 353939570#9 -1250915720#6 -1250915720#5 1250915720#4 -1250915722#1 -1250915722#2"/>
    </person>
    <person id="ped114" depart="570.00">
        <walk edges="353939585#0 48778489#3 -1158942155 -40330575#0 -40330575#1 -40330575#2 -40345956#0 -40345956#1 -40345956#2"/>
    </person>
    <person id="ped115" depart="575.00">
        <walk edges="-43546688#2 -43546688#1 -43547296#1 -43547296#0"/>
    </person>
    <person id="ped116" depart="580.00">
        <walk edges="48736641 250295383#0 48778446#2 48778446#1 48778446#0 48797771#2"/>
    </person>
    <person id="ped117" depart="585.00">
        <walk edges="-43546064#2 -143207979#0 -143207979#1 -143207979#2 43546053#1 647226814#1"/>
    </person>
    <person id="ped118" depart="590.00">
        <walk edges="-40236144#3 -40345930 40236146 40265780#1 40265780#0 43573547#8"/>
    </person>
    <person id="ped119" depart="595.00">
        <walk edges="-40236144#3 -40345930 -222609004#0 222609004#1"/>
    </person>
    <person id="ped120" depart="600.00">
        <walk edges="75628811#1 75628811#0 176279228#2 176279228#3 671606409 -25379984#2 -33913538#9 33913538#8 33913538#7"/>
    </person>
    <person id="ped121" depart="605.00">
        <walk edges="-40306162#1 40236228#1 354252039#0 354252039#1 40266619 43546648#0 -43546648#2 256555440#0 671622981#1 -647755347#0 -647755347#1 1136301812#1 -48778461#1"/>
    </person>
    <person id="ped122" depart="610.00">
        <walk edges="-40314883 -40299276#0 -40299241#0 -176279225#3 -176279225#4 470204653 48736633 48736620#6 48736620#5 48736620#3 48736620#2 48736610#3 -48736624#0"/>
    </person>
    <person id="ped123" depart="615.00">
        <walk edges="48736603#1 48736603#0 40295499#2 40295499#1 40295499#0 33910068#1 33910068#0 672420929 48736660#2 48736659 -48736612#0 -48736612#1 -48736612#2 -48736612#3 48736612#4 48736624#3 48736624#2 48736625 -48736611#1"/>
    </person>
    <person id="ped124" depart="620.00">
        <walk edges="48778512 1136289988 1232511776#0 43544179#11 -43544184#0 -48778522 1136289990"/>
    </person>
    <person id="ped125" depart="625.00">
        <walk edges="-470210923#1 -470210923#2"/>
    </person>
    <person id="ped126" depart="630.00">
        <walk edges="-40330575#3 48778495#1 -48778495#0"/>
    </person>
    <person id="ped127" depart="635.00">
        <walk edges="-43544202#0 143207979#5 -43544197#5 43546057 43544138#5 43544138#6"/>
    </person>
    <person id="ped128" depart="640.00">
        <walk edges="-273835688 898519021 48778480#7 48778480#9 256557201#6 256557201#5 470204655 -176279225#4 -176279225#3 40299241#0 40299276#0"/>
    </person>
    <person id="ped129" depart="645.00">
        <walk edges="-48736632#0 143207982#4 143207982#3 143207982#2 143207982#1 143207982#0 -48736620#2 -48736620#3 -48736620#5 48736620#6 48736633 470204653 -176279225#4 -176279225#3"/>
    </person>
    <person id="ped130" depart="650.00">
        <walk edges="40299276#0 40299241#0 -176279225#3 -176279225#4 470204655 256557201#5 256557201#6 48778480#9 48778480#7 -898519021 48778441#3 48778441#2 48778441#0"/>
    </person>
    <person id="ped131" depart="655.00">
        <walk edges="43546343#2 492965073#10 470210935 679395321 -43546648#8 -43546648#7 -43546648#5 -43546648#4 -43546648#2 -43546648#1 40306149 273836978#0 945793485#0 -945793485#1 -48778478#0 -48778478#1 -48778478#2"/>
    </person>
    <person id="ped132" depart="660.00">
        <walk edges="-48736607#1 48736657#0 48736657#1 -48736656#1 -48736656#0 48736610#2 48736610#3 143207982#0 48736621#0"/>
    </person>
    <person id="ped133" depart="665.00">
        <walk edges="-48736620#3 -48736620#5 48736620#6 48736633 1135770583 256557201#3 470204654"/>
    </person>
    <person id="ped134" depart="670.00">
        <walk edges="-43547579#3 -43546449#2 -43546449#1 -43546449#0 -48778446#2 -48778446#1 -48736638#2 -48736638#1 -48736638#0"/>
    </person>
    <person id="ped135" depart="675.00">
        <walk edges="-48778441#0 1136301813 647741479 -48797771#2 492965073#3 40314853#3 40314853#2 -48736637 848060815 -40299283 -40299739#0 -40299738"/>
    </person>
    <person id="ped136" depart="680.00">
        <walk edges="40305706#2 354252039#0 354252039#1 40266619 43546648#0 -43546648#2 256555440#0 671622981#1 -647755347#0 -647755347#1 1136301818 -258551317"/>
    </person>
    <person id="ped137" depart="685.00">
        <walk edges="40334244#3 -353939570#4 353939570#5 222605086 222605087#1 222605087#2 222605084#0 222605084#1 -222605084#1 -222605084#0"/>
    </person>
    <person id="ped138" depart="690.00">
        <walk edges="48778476 48778473#1 48778473#2 -40236203#3 -40236203#2 -40236203#1 -40236220#2"/>
    </person>
    <person id="ped139" depart="695.00">
        <walk edges="-43544184#2 -43544184#1 43544184#0 43544179#10 -43544138#0 -43544138#1 -43544138#2 -43544138#3 -43544138#4 -43544138#5 -43544138#6"/>
    </person>
    <person id="ped140" depart="700.00">
        <walk edges="-48797765#2 671622981#3 647755347#0 647755347#1 -1136301812#1 -1136301812#0 48778464#3 48778464#2 48778464#1 48778456#0 48778456#1 48797771#2 48778446#0 48778446#1 48778446#2 43546449#0 43546449#1"/>
    </person>
    <person id="ped141" depart="705.00">
        <walk edges="-48736624#3 48736612#4 -48736612#3 -48736612#2 -48736612#1 -48736612#0 48736659 48736660#2 672420929 33910068#0 33910068#1 40295499#0 -40295499#0"/>
    </person>
    <person id="ped142" depart="710.00">
        <walk edges="-647347140#1 -647347140#2 -43573547#0 -43573547#1 -43573547#2 -43573547#3 43573547#5 43573547#6"/>
    </person>
    <person id="ped143" depart="715.00">
        <walk edges="40314853#2 40314853#3 -492965073#2 470204656 256557201#1 48736635#0 48736635#1 -48736620#6 -48736620#5 -48736620#3 -48736620#2 143207982#0 143207982#1 143207982#2 -40314583#7 -40314583#6 -40314583#5 -40314583#4"/>
    </person>
    <person id="ped144" depart="720.00">
        <walk edges="-143207982#6 143207982#6 143207982#5 143207982#4 143207982#3 143207982#2 143207982#1 143207982#0 -48736620#2 -48736620#3 -48736620#5 48736620#6 48736633 470204653 -176279225#4 -176279225#3 40299241#0 -40299241#1"/>
    </person>
    <person id="ped145" depart="725.00">
        <walk edges="725339013 -671606411 671606412 176279228#7 671606407 -176279225#0 -176279225#1 -176279225#2 -176279225#3"/>
    </person>
    <person id="ped146" depart="730.00">
        <walk edges="48778478#1 -48778478#0 -945793485#1 945793485#0 273836978#0 40306149 40266619 354252039#1 354252039#0 40305706#2 40305706#1 40305706#0 40236144#0 40236144#1 578560104#6"/>
    </person>
    <person id="ped147" depart="735.00">
        <walk edges="43547017#3 43547017#2 43547017#1 43547017#0 -43544001#14"/>
    </person>
    <person id="ped148" depart="740.00">
        <walk edges="-48736614#3 -40314583#0 143207982#8 143207982#7 143207982#6 143207982#5 143207982#4 -143207982#3"/>
    </person>
    <person id="ped149" depart="745.00">
        <walk edges="48778475#0 -48778475#1 -48778473#0 -48778473#1 48778473#2 -40236203#3 -40236153#0"/>
    </person>
    <person id="ped150" depart="750.00">
        <walk edges="43544001#7"/>
    </person>
    <person id="ped151" depart="755.00">
        <walk edges="48778481#4 -898519021 -40266910 E6 40266909#1 40266909#0 40266621 273836978#1 -945793485#0 -945793485#1 -48778478#0 -48778478#1 -48778478#2"/>
    </person>
    <person id="ped152" depart="760.00">
        <walk edges="48778485#0 -48778486 1136117604 -354259933#3 353939585#0 48778498#1 48778498#2 222609002#2 -222609002#3 -222609002#4 -48778503#0 -48778503#1"/>
    </person>
    <person id="ped153" depart="765.00">
        <walk edges="143207982#2 143207982#1 143207982#0 48736610#3 48736610#2 48736610#1 48736610#0 -48736612#3"/>
    </person>
    <person id="ped154" depart="770.00">