<?xml version="1.0" encoding="UTF-8"?>

<!-- generated on 2025-06-06 19:06:03 by Eclipse SUMO duarouter Version 1.22.0
<duarouterConfiguration xmlns:xsi="http://www.w3.org/2001/XMLSchema-instance" xsi:noNamespaceSchemaLocation="http://sumo.dlr.de/xsd/duarouterConfiguration.xsd">

    <input>
        <net-file value="osm.net.xml"/>
        <additional-files value="vtypes.xml"/>
        <route-files value="trips.truck.xml"/>
    </input>

    <output>
        <output-file value="truck.rou.xml"/>
    </output>

    <report>
        <ignore-errors value="true"/>
    </report>

</duarouterConfiguration>
-->

<routes xmlns:xsi="http://www.w3.org/2001/XMLSchema-instance" xsi:noNamespaceSchemaLocation="http://sumo.dlr.de/xsd/routes_file.xsd">
    <vType id="truck" length="12.00" maxSpeed="13.90" vClass="truck" accel="1.0" decel="4.5"/>
    <vehicle id="truck42" type="truck" depart="444.00">
        <route edges="223942064#0 223942064#0.267 223942064#1 223942064#2 251916699#0 251916699#1 251916699#2 672409436 48778466#5 48778466#6 48778466#1 48778466#2 48778466#3 672409433 -251916699#2 -251916699#1 -251916699#0 -223942064#2 -223942064#1 -223942064#0 -223942064#0.371"/>
    </vehicle>
    <vehicle id="truck13" type="truck" depart="622.00">
        <route edges="401741890 -92198451#2 -92198451#1 -92198451#0 671593845 48778466#3 672409433 -251916699#2 -251916699#1 -251916699#0 -223942064#2 -223942064#1 -223942064#0 E7 -878079387#0 -48798094#1 -48798094#0 -33910068#0 48736653 733560013 725328136 354250407#1 1135770581 176279228#3 671606409 -25379984#2 -33913538#9 -33913538#8 -33913538#7 -33913538#6 -33913538#5 -33913538#4 -33913538#3 -33913538#2 -33913538#1 -33913538#0"/>
    </vehicle>
    <vehicle id="truck11" type="truck" depart="648.00">
        <route edges="48788485#0 48788485#3 48788485#4 48788485#5 48788485#6 48788485#7 48788485#8 48788485#9 1136121569 671908803#4 671908803#5 671908803#0 671908803#1 671908803#2 33909892 48778431#1 48778431#2 48778431#3 48778431#4 48778431#5 48778431#6 48778431#7 48778431#10"/>
    </vehicle>
    <vehicle id="truck18" type="truck" depart="729.00">
        <route edges="33913538#0 33913538#1 33913538#2 33913538#3 33913538#4 33913538#5 33913538#6 33913538#7 33913538#8 33913538#9 25379984#0 671606410 176279228#5 176279228#6 176279228#7 176279228#0 176279228#1 176279228#2 176279228#3 671606409 -25379984#2 -33913538#9 -33913538#8 -33913538#7 -33913538#6 -33913538#5 -33913538#4 -33913538#3 -33913538#2 -33913538#1 -33913538#0"/>
    </vehicle>
    <vehicle id="truck20" type="truck" depart="759.00">
        <route edges="-160010389#2 -160010389#1 -160010389#0 -33910094#1 -33910094#0 -492965072#0 -223942063#0 E8 223942064#0.267 223942064#1 223942064#2 251916699#0 251916699#1 251916699#2 672409436 48778466#5 48778466#6 48778466#1 672409434 92198451#0 92198451#1 92198451#2 647606778"/>
    </vehicle>
    <vehicle id="truck4" type="truck" depart="761.00">
        <route edges="48788485#0 48788485#3 48788485#4 48788485#5 48788485#6 48788485#7 48788485#8 48788485#9 1136121569 671908803#4 671908803#5 671908803#0 48778509 -33909936#5 -33909936#4 -33909936#3 -33909936#2 -33909936#1 -33909936#0 -353939570#10 -353939570#9 -353939570#8 -353939570#7 -353939570#6 -353939570#5 -353939570#4 -353939570#2 -353939570#1 -353939570#0 48736651 1135770582 48736663#4 222603524 -671606411 671606412 176279228#7 176279228#0 176279228#1 75628811#0 75628811#1 354250406 48736660#0 48736660#1 48736660#2 672420929 33910068#0 33910068#1 48798094#1 48798094#2 E8 223942064#0.267 223942064#1 223942064#2 251916699#0 251916699#1 251916699#2 672409436 48778466#5 48778466#6 48778466#1 672409434 92198451#0 92198451#1 92198451#2 647606778"/>
    </vehicle>
    <vehicle id="truck21" type="truck" depart="782.00">
        <route edges="48788485#0 48788485#3 48788485#4 48788485#5 48788485#6 48788485#7 48788485#8 48788485#9 1136121569 671908803#4 671908803#5 671908803#0 48778509 -33909936#5 -33909936#4 -33909936#3 -33909936#2 -33909936#1 -33909936#0 -353939570#10 -353939570#9 -353939570#8 -353939570#7 -353939570#6 -353939570#5 -353939570#4 -353939570#2 -353939570#1 -353939570#0 48736651 1135770582 48736663#4 222603524 -671606411 671606412 176279228#7 176279228#0 176279228#1 75628811#0 75628811#1 354250406 48736660#0 48736660#1 48736660#2 672420929 33910068#0 33910068#1 48798094#1 48798094#2 E8 -223942064#0.371"/>
    </vehicle>
    <vehicle id="truck16" type="truck" depart="873.00">
        <route edges="223942064#0 E7 878079387#1 223942063#1 492965072#1 33910094#1 160010389#0 160010389#1 160010389#2"/>
    </vehicle>
    <vehicle id="truck30" type="truck" depart="930.00">
        <route edges="-160010389#2 -160010389#1 -160010389#0 -33910094#1 -33910094#0 -492965072#0 -223942063#0 -878079387#0 -48798094#1 -48798094#0 -33910068#0 48736653 733560013 725328136 354250407#1 1135770581 176279228#3 671606409 -25379984#2 -33913538#9 -33913538#8 -33913538#7 -33913538#6 -33913538#5 -33913538#4 -33913538#3 -33913538#2 -33913538#1 -33913538#0"/>
    </vehicle>
    <vehicle id="truck27" type="truck" depart="1095.00">
        <route edges="48788485#0 48788485#3 48788485#4 48788485#5 48788485#6 48788485#7 48788485#8 48788485#9 1136121569 671908803#4 671908803#5 671908803#0 48778509 -33909936#5 -33909936#4 -33909936#3 -33909936#2 -33909936#1 -33909936#0 -353939570#10 -353939570#9 -353939570#8 -353939570#7 -353939570#6 -353939570#5 -353939570#4 -353939570#2 -353939570#1 -353939570#0 48736651 1135770582 48736663#4 48736663#5 48736663#6 48736662 -33909840#1 -33913538#9 -33913538#8 -33913538#7 -33913538#6 -33913538#5 -33913538#4 -33913538#3 -33913538#2 -33913538#1 -33913538#0"/>
    </vehicle>
    <vehicle id="truck25" type="truck" depart="1112.00">
        <route edges="48788485#0 48788485#3 48788485#4 48788485#5 48788485#6 48788485#7 48788485#8 48788485#9 1136121569 671908803#4 671908803#5 671908803#0 48778509 -33909936#5 -33909936#4 -33909936#3 -33909936#2 -33909936#1 -33909936#0 -353939570#10 -353939570#9 -353939570#8 -353939570#7 -353939570#6 -353939570#5 -353939570#4 -353939570#2 -353939570#1 -353939570#0 48736651 1135770582 48736663#4 222603524 -671606411 671606412 176279228#7 176279228#0 176279228#1 75628811#0 75628811#1 354250406 48736660#0 48736660#1 48736660#2 672420929 33910068#0 33910068#1 48798094#1 48798094#2 878079387#1 223942063#1 492965072#1 33910094#1 160010389#0 160010389#1 160010389#2"/>
    </vehicle>
    <vehicle id="truck15" type="truck" depart="1367.00">
        <route edges="48788485#0 48788485#3 48788485#4 48788485#5 48788485#6 48788485#7 48788485#8 48788485#9 1136121569 671908803#4 671908803#5 671908803#0 671908803#1 671908803#2 33909892 48778431#1 48778431#2 48778431#3 48778431#4 48778431#5 48778431#6 48778431#7 48778431#10"/>
    </vehicle>
    <vehicle id="truck34" type="truck" depart="1455.00">
        <route edges="33913538#0 33913538#1 33913538#2 33913538#3 33913538#4 33913538#5 33913538#6 33913538#7 33913538#8 33913538#9 33909840#0 48736661 48736663#1 48736663#2 48736652 353939570#0 353939570#1 353939570#2 353939570#3 353939570#5 353939570#6 353939570#7 353939570#8 353939570#9 353939570#10 33909936#0 33909936#1 33909936#2 33909936#3 33909936#4 33909936#5 1017944534 671908803#2 33909892 48778431#1 48778431#2 48778431#3 48778431#4 48778431#5 48778431#6 48778431#7 48778431#10"/>
    </vehicle>
    <vehicle id="truck17" type="truck" depart="1611.00">
        <route edges="401741890 -92198451#2 -92198451#1 -92198451#0 671593845 48778466#3 672409433 -251916699#2 -251916699#1 -251916699#0 -223942064#2 -223942064#1 -223942064#0 E7 -878079387#0 -48798094#1 -48798094#0 -33910068#0 48736653 733560013 725328136 354250407#1 1135770581 176279228#3 176279228#4 176279228#5 75628791 671606411 725339013 48736663#6 48736663#7 48736663#1 48736663#2 48736652 353939570#0 353939570#1 353939570#2 353939570#3 353939570#5 353939570#6 353939570#7 353939570#8 353939570#9 353939570#10 33909936#0 33909936#1 33909936#2 33909936#3 33909936#4 33909936#5 1017944534 671908803#2 33909892 48778431#1 48778431#2 48778431#3 48778431#4 48778431#5 48778431#6 48778431#7 48778431#10"/>
    </vehicle>
    <vehicle id="truck1" type="truck" depart="1698.00">
        <route edges="48788485#0 48788485#3 48788485#4 48788485#5 48788485#6 48788485#7 48788485#8 48788485#9 1136121569 671908803#4 671908803#5 671908803#0 48778509 -33909936#5 -33909936#4 -33909936#3 -33909936#2 -33909936#1 -33909936#0 -353939570#10 -353939570#9 -353939570#8 -353939570#7 -353939570#6 -353939570#5 -353939570#4 -353939570#2 -353939570#1 -353939570#0 48736651 1135770582 48736663#4 222603524 -671606411 671606412 176279228#7 176279228#0 176279228#1 75628811#0 75628811#1 354250406 48736660#0 48736660#1 48736660#2 672420929 33910068#0 33910068#1 48798094#1 48798094#2 E8 -223942064#0.371"/>
    </vehicle>
    <vehicle id="truck0" type="truck" depart="1849.00">
        <route edges="33913538#0 33913538#1 33913538#2 33913538#3 33913538#4 33913538#5 33913538#6 33913538#7 33913538#8 33913538#9 25379984#0 671606410 176279228#5 176279228#6 176279228#7 176279228#0 176279228#1 176279228#2 176279228#3 671606409 -25379984#2 -33913538#9 -33913538#8 -33913538#7 -33913538#6 -33913538#5 -33913538#4"/>
    </vehicle>
    <vehicle id="truck9" type="truck" depart="1898.00">
        <route edges="48788485#0 48788485#3 48788485#4 48788485#5 48788485#6 48788485#7 48788485#8 48788485#9 1136121569 671908803#4 671908803#5 671908803#0 48778509 -33909936#5 -33909936#4 -33909936#3 -33909936#2 -33909936#1 -33909936#0 -353939570#10 -353939570#9 -353939570#8 -353939570#7 -353939570#6 -353939570#5 -353939570#4 -353939570#2 -353939570#1 -353939570#0 48736651 1135770582 48736663#4 222603524 -671606411 671606412 176279228#7 176279228#0 176279228#1 75628811#0 75628811#1 354250406 48736660#0 48736660#1 48736660#2 672420929 33910068#0 33910068#1 48798094#1 48798094#2 E8 223942064#0.267 223942064#1 223942064#2 251916699#0 251916699#1 251916699#2 672409436 48778466#5 48778466#6 48778466#1 672409434 92198451#0 92198451#1 92198451#2 647606778"/>
    </vehicle>
    <vehicle id="truck39" type="truck" depart="1976.00">
        <route edges="223942064#0 223942064#0.267 223942064#1 223942064#2 251916699#0 251916699#1 251916699#2 672409436 48778466#5 48778466#6 48778466#1 672409434 92198451#0 92198451#1 92198451#2 647606778"/>
    </vehicle>
    <vehicle id="truck22" type="truck" depart="2142.00">
        <route edges="401741890 -92198451#2 -92198451#1 -92198451#0 671593845 48778466#3 672409433 -251916699#2 -251916699#1 -251916699#0 -223942064#2 -223942064#1 -223942064#0 -223942064#0.371"/>
    </vehicle>
    <vehicle id="truck32" type="truck" depart="2146.00">
        <route edges="223942064#0 E7 -878079387#0 -48798094#1 -48798094#0 -33910068#0 48736653 733560013 733560012 48736660#0 48736660#1 48736660#2 672420929 33910068#0 33910068#1"/>
    </vehicle>
    <vehicle id="truck26" type="truck" depart="2147.00">
        <route edges="48788485#0 48788485#3 48788485#4 48788485#5 48788485#6 48788485#7 48788485#8 48788485#9 1136121569 671908803#4 671908803#5 671908803#0 48778509 -33909936#5 -33909936#4 -33909936#3 -33909936#2 -33909936#1 -33909936#0 -353939570#10 -353939570#9 -353939570#8 -353939570#7 -353939570#6 -353939570#5 -353939570#4 -353939570#2 -353939570#1 -353939570#0 48736651 1135770582 48736663#4 222603524 -671606411 671606412 176279228#7 176279228#0 176279228#1 75628811#0 75628811#1 354250406 48736660#0 48736660#1 48736660#2 672420929 33910068#0 33910068#1 48798094#1 48798094#2 E8 -223942064#0.371"/>
    </vehicle>
    <vehicle id="truck6" type="truck" depart="2194.00">
        <route edges="401741890 -92198451#2 -92198451#1 -92198451#0 671593845 48778466#3 48778466#4 48778466#5 48778466#6 48778466#1 672409434 92198451#0 92198451#1 92198451#2 647606778"/>
    </vehicle>
    <vehicle id="truck36" type="truck" depart="2232.00">
        <route edges="33913538#0 33913538#1 33913538#2 33913538#3 33913538#4 33913538#5 33913538#6 33913538#7 33913538#8 33913538#9 25379984#0 671606410 176279228#5 176279228#6 176279228#7 176279228#0 176279228#1 75628811#0 75628811#1 354250406 48736660#0 48736660#1 48736660#2 672420929 33910068#0 33910068#1 48798094#1 48798094#2 E8 223942064#0.267 223942064#1 223942064#2 251916699#0 251916699#1 251916699#2 672409436 48778466#5 48778466#6 48778466#1 672409434 92198451#0 92198451#1 92198451#2 647606778"/>
    </vehicle>
    <vehicle id="truck10" type="truck" depart="2243.00">
        <route edges="-160010389#2 -160010389#1 -160010389#0 -33910094#1 -33910094#0 -492965072#0 -223942063#0 E8 -223942064#0.371"/>
    </vehicle>
    <vehicle id="truck28" type="truck" depart="2355.00">
        <route edges="48788485#0 48788485#3 48788485#4 48788485#5 48788485#6 48788485#7 48788485#8 48788485#9 1136121569 671908803#4 671908803#5 671908803#0 48778509 -33909936#5 -33909936#4 -33909936#3 -33909936#2 -33909936#1 -33909936#0 -353939570#10 -353939570#9 -353939570#8 -353939570#7 -353939570#6 -353939570#5 -353939570#4 -353939570#2 -353939570#1 -353939570#0 48736651 1135770582 48736663#4 48736663#5 48736663#6 48736662 -33909840#1 -33913538#9 -33913538#8 -33913538#7 -33913538#6 -33913538#5 -33913538#4 -33913538#3 -33913538#2 -33913538#1 -33913538#0"/>
    </vehicle>
    <vehicle id="truck41" type="truck" depart="2577.00">
        <route edges="33913538#0 33913538#1 33913538#2 33913538#3 33913538#4 33913538#5 33913538#6 33913538#7 33913538#8 33913538#9 25379984#0 671606410 176279228#5 176279228#6 176279228#7 176279228#0 176279228#1 75628811#0 75628811#1 354250406 48736660#0 48736660#1 48736660#2 672420929 33910068#0 33910068#1 48798094#1 48798094#2 E8 223942064#0.267 223942064#1 223942064#2 251916699#0 251916699#1 251916699#2 672409436 48778466#5 48778466#6 48778466#1 672409434 92198451#0 92198451#1 92198451#2 647606778"/>
    </vehicle>
    <vehicle id="truck31" type="truck" depart="2630.00">
        <route edges="401741890 -92198451#2 -92198451#1 -92198451#0 671593845 48778466#3 672409433 -251916699#2 -251916699#1 -251916699#0 -223942064#2 -223942064#1 -223942064#0 E7 -878079387#0 -48798094#1 -48798094#0 -33910068#0 48736653 733560013 725328136 354250407#1 1135770581 176279228#3 176279228#4 176279228#5 75628791 671606411 725339013 48736663#6 48736663#7 48736663#1 48736663#2 48736652 353939570#0 353939570#1 353939570#2 353939570#3 353939570#5 353939570#6 353939570#7 353939570#8 353939570#9 353939570#10 33909936#0 33909936#1 33909936#2 33909936#3 33909936#4 33909936#5 1017944534 671908803#2 33909892 48778431#1 48778431#2 48778431#3 48778431#4 48778431#5 48778431#6 48778431#7 48778431#10"/>
    </vehicle>
    <vehicle id="truck29" type="truck" depart="2679.00">
        <route edges="48788485#0 48788485#3 48788485#4 48788485#5 48788485#6 48788485#7 48788485#8 48788485#9 1136121569 671908803#4 671908803#5 671908803#0 48778509 -33909936#5 -33909936#4 -33909936#3 -33909936#2 -33909936#1 -33909936#0 -353939570#10 -353939570#9 -353939570#8 -353939570#7 -353939570#6 -353939570#5 -353939570#4 -353939570#2 -353939570#1 -353939570#0 48736651 1135770582 48736663#4 222603524 -671606411 671606412 176279228#7 176279228#0 176279228#1 75628811#0 75628811#1 354250406 48736660#0 48736660#1 48736660#2 672420929 33910068#0 33910068#1 48798094#1 48798094#2 E8 223942064#0.267 223942064#1 223942064#2 251916699#0 251916699#1 251916699#2 672409436 48778466#5 48778466#6 48778466#1 672409434 92198451#0 92198451#1 92198451#2 647606778"/>
    </vehicle>
    <vehicle id="truck23" type="truck" depart="2747.00">
        <route edges="33913538#0 33913538#1 33913538#2 33913538#3 33913538#4 33913538#5 33913538#6 33913538#7 33913538#8 33913538#9 25379984#0 671606410 176279228#5 176279228#6 176279228#7 176279228#0 176279228#1 176279228#2 176279228#3 671606409 -25379984#2 -33913538#9 -33913538#8 -33913538#7 -33913538#6 -33913538#5 -33913538#4 -33913538#3 -33913538#2 -33913538#1 -33913538#0"/>
    </vehicle>
    <vehicle id="truck14" type="truck" depart="2750.00">
        <route edges="33913538#0 33913538#1 33913538#2 33913538#3 33913538#4 33913538#5 33913538#6 33913538#7 33913538#8 33913538#9 25379984#0 671606410 176279228#5 176279228#6 176279228#7 176279228#0 176279228#1 176279228#2 176279228#3 671606409 -25379984#2 -33913538#9 -33913538#8 -33913538#7 -33913538#6 -33913538#5 -33913538#4 -33913538#3 -33913538#2 -33913538#1 -33913538#0"/>
    </vehicle>
    <vehicle id="truck8" type="truck" depart="2759.00">
        <route edges="48788485#0 48788485#3 48788485#4 48788485#5 48788485#6 48788485#7 48788485#8 48788485#9 1136121569 671908803#4 671908803#5 671908803#0 48778509 -33909936#5 -33909936#4 -33909936#3 -33909936#2 -33909936#1 -33909936#0 -353939570#10 -353939570#9 -353939570#8 -353939570#7 -353939570#6 -353939570#5 -353939570#4 -353939570#2 -353939570#1 -353939570#0 48736651 1135770582 48736663#4 48736663#5 48736663#6 48736662 -33909840#1 -33913538#9 -33913538#8 -33913538#7 -33913538#6 -33913538#5 -33913538#4 -33913538#3 -33913538#2 -33913538#1 -33913538#0"/>
    </vehicle>
    <vehicle id="truck24" type="truck" depart="2759.00">
        <route edges="-160010389#2 -160010389#1 -160010389#0 -33910094#1 -33910094#0 -492965072#0 -223942063#0 -878079387#0 -48798094#1 -48798094#0 -33910068#0 48736653 733560013 725328136 354250407#1 1135770581 176279228#3 671606409 -25379984#2 -33913538#9 -33913538#8 -33913538#7 -33913538#6 -33913538#5 -33913538#4 -33913538#3 -33913538#2 -33913538#1 -33913538#0"/>
    </vehicle>
    <vehicle id="truck35" type="truck" depart="2791.00">
        <route edges="-160010389#2 -160010389#1 -160010389#0 -33910094#1 -33910094#0 -492965072#0 -223942063#0 E8 223942064#0.267 223942064#1 223942064#2 251916699#0 251916699#1 251916699#2 672409436 48778466#5 48778466#6 48778466#1 672409434 92198451#0 92198451#1 92198451#2 647606778"/>
    </vehicle>
    <vehicle id="truck33" type="truck" depart="2811.00">
        <route edges="223942064#0 E7 878079387#1 223942063#1 492965072#1 33910094#1 160010389#0 160010389#1 160010389#2"/>
    </vehicle>
    <vehicle id="truck38" type="truck" depart="2852.00">
        <route edges="33913538#0 33913538#1 33913538#2 33913538#3 33913538#4 33913538#5 33913538#6 33913538#7 33913538#8 33913538#9 25379984#0 671606410 176279228#5 176279228#6 176279228#7 176279228#0 176279228#1 176279228#2 176279228#3 671606409 -25379984#2 -33913538#9 -33913538#8 -33913538#7 -33913538#6 -33913538#5 -33913538#4 -33913538#3 -33913538#2 -33913538#1 -33913538#0"/>
    </vehicle>
    <vehicle id="truck2" type="truck" depart="2858.00">
        <route edges="48788485#0 48788485#3 48788485#4 48788485#5 48788485#6 48788485#7 48788485#8 48788485#9 1136121569 671908803#4 671908803#5 671908803#0 48778509 -33909936#5 -33909936#4 -33909936#3 -33909936#2 -33909936#1 -33909936#0 -353939570#10 -353939570#9 -353939570#8 -353939570#7 -353939570#6 -353939570#5 -353939570#4 -353939570#2 -353939570#1 -353939570#0 48736651 1135770582 48736663#4 222603524 -671606411 671606412 176279228#7 176279228#0 176279228#1 75628811#0 75628811#1 354250406 48736660#0 48736660#1 48736660#2 733560011 733560013 725328136"/>
    </vehicle>
    <vehicle id="truck40" type="truck" depart="3209.00">
        <route edges="223942064#0 E7 -878079387#0 -48798094#1 -48798094#0 -33910068#0 48736653 733560013 733560012 48736660#0 48736660#1"/>
    </vehicle>
    <vehicle id="truck3" type="truck" depart="3268.00">
        <route edges="223942064#0 223942064#0.267 223942064#1 223942064#2 251916699#0 251916699#1 251916699#2 672409436 48778466#5 48778466#6 48778466#1 48778466#2 48778466#3 672409433 -251916699#2 -251916699#1 -251916699#0 -223942064#2 -223942064#1 -223942064#0 -223942064#0.371"/>
    </vehicle>
    <vehicle id="truck12" type="truck" depart="3336.00">
        <route edges="401741890 -92198451#2 -92198451#1 -92198451#0 671593845 48778466#3 672409433 -251916699#2 -251916699#1 -251916699#0 -223942064#2 -223942064#1 -223942064#0 E7 -878079387#0 -48798094#1 -48798094#0 -33910068#0 48736653 733560013 725328136 354250407#1 1135770581 176279228#3 671606409 -25379984#2 -33913538#9 -33913538#8 -33913538#7 -33913538#6 -33913538#5 -33913538#4 -33913538#3 -33913538#2 -33913538#1 -33913538#0"/>
    </vehicle>
    <vehicle id="truck7" type="truck" depart="3363.00">
        <route edges="48788485#0 48788485#3 48788485#4 48788485#5 48788485#6 48788485#7 48788485#8 48788485#9 1136121569 671908803#4 671908803#5 671908803#0 48778509 -33909936#5 -33909936#4 -33909936#3 -33909936#2 -33909936#1 -33909936#0 -353939570#10 -353939570#9 -353939570#8 -353939570#7 -353939570#6 -353939570#5 -353939570#4 -353939570#2 -353939570#1 -353939570#0 48736651 1135770582 48736663#4 222603524 -671606411 671606412 176279228#7 176279228#0 176279228#1 75628811#0 75628811#1 354250406 48736660#0 48736660#1 48736660#2 672420929 33910068#0 33910068#1 48798094#1 48798094#2 878079387#1 223942063#1 492965072#1 33910094#1 160010389#0 160010389#1 160010389#2"/>
    </vehicle>
</routes>
