<?xml version="1.0" encoding="UTF-8"?>

<!-- generated on 2025-06-15 22:57:54.048526 by randomTrips.py v1_22_0+0002-63e50f52594
<configuration>
    <net-file value="E:/licenta/oras-mediu/2025-06-05-11-45-23\osm.net.xml"/>
    <output-trip-file value="E:/licenta/oras-mediu/2025-06-05-11-45-23\trips.vehicles.xml"/>
    <route-file value="E:/licenta/oras-mediu/2025-06-05-11-45-23\full.rou.xml"/>
    <prefix value="veh"/>
    <trip-attributes value="departLane=&quot;best&quot; departSpeed=&quot;0&quot; departPos=&quot;random&quot; type=&quot;randomDist&quot;"/>
    <fringe-factor value="1.8"/>
    <seed value="39176"/>
    <end value="1200.0"/>
    <period value="0.61"/>
</configuration>
-->

<!-- generated on 2025-06-15 22:57:53 by Eclipse SUMO duarouter Version 1.22.0
<duarouterConfiguration xmlns:xsi="http://www.w3.org/2001/XMLSchema-instance" xsi:noNamespaceSchemaLocation="http://sumo.dlr.de/xsd/duarouterConfiguration.xsd">

    <input>
        <net-file value="E:/licenta/oras-mediu/2025-06-05-11-45-23\osm.net.xml"/>
        <route-files value="E:/licenta/oras-mediu/2025-06-05-11-45-23\trips.vehicles.xml"/>
    </input>

    <output>
        <output-file value="E:/licenta/oras-mediu/2025-06-05-11-45-23\full.rou.xml"/>
        <alternatives-output value="NUL"/>
    </output>

    <time>
        <begin value="0"/>
        <end value="1200.0"/>
    </time>

    <report>
        <no-warnings value="true"/>
        <ignore-errors value="true"/>
        <no-step-log value="true"/>
    </report>

</duarouterConfiguration>
-->

<routes xmlns:xsi="http://www.w3.org/2001/XMLSchema-instance" xsi:noNamespaceSchemaLocation="http://sumo.dlr.de/xsd/routes_file.xsd">
    <vehicle id="veh0" type="randomDist" depart="0.00" departLane="best" departPos="random" departSpeed="0.00">
        <route edges="647998062 -647998060#0 -48778525#1 -48778525#0 -48778524#1 -48778524#0 43544001#10 -43544138#8 -43544138#7 -43544138#6 -43544138#5 -43544138#4 -43544138#3 -43544138#2 -43544138#1 -43544138#0 43544179#10 43544184#0 43544184#1 43544184#2 43544184#3 -43573573#4 -43573573#3 -43573573#2 -43573573#1 -43573573#0 -647347140#2 -48778500#2 -48778500#1 -48778500#0 -48778498#1"/>
    </vehicle>
    <vehicle id="veh1" type="randomDist" depart="0.61" departLane="best" departPos="random" departSpeed="0.00">
        <route edges="422283114 -E40 E42 353939570#1 353939570#2 353939570#3 353939570#5 353939570#6 353939570#7 353939570#8 353939570#9 353939570#10 33909936#0 33909936#1 33909936#2 33909936#3 33909936#4 33909936#5 E14 48778431#1 48778431#2 48778431#3 48778431#4 -43544179#12 -43547017#5 -43547017#4 -43547017#3 -43547017#2 -43547017#1 -43546935#3 -43546935#2 -43546935#1 -43546935#0 -43544197#2 -43544197#1 -43544197#0 43544001#9"/>
    </vehicle>
    <vehicle id="veh2" type="randomDist" depart="1.22" departLane="best" departPos="random" departSpeed="0.00">
        <route edges="-92198453#4 -92198453#3 -92198453#2 -92198453#1 -92198453#0 43546506#0 43546506#1 43544179#0 43544179#2 43544179#3 43544179#4 43544179#6 43544179#7 43544179#8 -43544197#8 -43544197#7 -43544197#6 -43544197#5 -43544197#4 43546935#0 -43544138#5"/>
    </vehicle>
    <vehicle id="veh3" type="randomDist" depart="1.83" departLane="best" departPos="random" departSpeed="0.00">
        <route edges="-945793491#1 222605084#9 -945793490#3 -222605084#1 -222605084#0 -222605087#2 -222605087#1 -222605087#0 353939570#8 353939570#9 -40330575#4 -40330575#3 -40330575#2 -40330575#1 -40330575#0 -1158942155 -222609004#1 -222609004#0 222609002#0 222609002#1 222609002#2 222609002#3 222609002#4 43573547#2 48778497 48778505#1 48778505#2 43546105#1 43546105#2 43546105#3 43544179#7 43544202#0"/>
    </vehicle>
    <vehicle id="veh4" type="randomDist" depart="2.44" departLane="best" departPos="random" departSpeed="0.00">
        <route edges="-48736656#0 48736610#2 48736610#3 48736620#2 48736620#3 48736620#5 48736620#6 48736633 492965073#0 492965073#3 492965073#5 492965073#6 492965073#7 492965073#8 492965073#9 492965073#10 E9 -E10 470210923#1 470210923#2 470210923#3 -92198453#6 -92198453#4 -92198453#3 -92198453#2 -92198453#1 -92198453#0 43546506#0 -383582514"/>
    </vehicle>
    <vehicle id="veh5" type="randomDist" depart="3.05" departLane="best" departPos="random" departSpeed="0.00">
        <route edges="-996984132 222609002#1 222609002#2 222609002#3 222609002#4 43573547#2 43573547#3 -43546115 -48778505#0 -43573547#2"/>
    </vehicle>
    <vehicle id="veh6" type="randomDist" depart="3.66" departLane="best" departPos="random" departSpeed="0.00">
        <route edges="-48797767#0 48797766#0 48797766#1 48797766#2 48736637 40314853#2 40314853#3 492965073#3 492965073#5 492965073#6 492965073#7 492965073#8 492965073#9 492965073#10 E9 -E110 -40236203#3 -40236203#2 -40236203#1 -40236203#0 40236144#0 1136283381 1136283379#1"/>
    </vehicle>
    <vehicle id="veh7" type="randomDist" depart="4.27" departLane="best" departPos="random" departSpeed="0.00">
        <route edges="48778464#3 48778443#0 48778443#1 48778443#2 -647762524 -48797765#1 -48797765#0 43546648#5 48778475#0 48778475#1 48778473#0 48778473#1 48778473#2 -40236203#3 -40236203#2 -40236203#1 -40236203#0 40236144#0 40236144#1 40236144#2 40236144#3 40345930 222609004#0 222609004#1 1158942155 40330575#0 40330575#1 40330575#2 40330575#3 40330575#4 -353939570#9 -1250915720#6 -1250915720#5 -1250915720#4 -1250915720#3 -1250915720#2 1250915724#1 1250915722#3"/>
    </vehicle>
    <vehicle id="veh8" type="randomDist" depart="4.88" departLane="best" departPos="random" departSpeed="0.00">
        <route edges="-48778478#2 -48778478#1 -48778478#0 -945793485#1 -945793485#0 273836978#1 40266621 40266909#0 -273835686#1 -530106516#2 48778481#8 48778481#9 48778489#0 -222609004#1 -222609004#0 222609002#0 222609002#1 222609002#2 222609002#3 222609002#4 43573547#2 48778497 48778505#1 48778505#2 43546105#1 258551279"/>
    </vehicle>
    <vehicle id="veh9" type="randomDist" depart="5.49" departLane="best" departPos="random" departSpeed="0.00">
        <route edges="43544138#1 43544138#2 -43546088 43544197#7 43544197#8 -43544179#8 -43544179#7 -43544179#6 -43544179#5 -43544179#3 -43544179#2 -43544179#1 40304754#0 40304754#2 40304754#3 40304754#4 40304754#5 40236203#2 40236203#3 40236203#4 -E9 -492965073#10 -492965073#9 -492965073#8 -492965073#7 -492965073#6 48778464#0 48778464#1 -1135772297"/>
    </vehicle>
    <vehicle id="veh10" type="randomDist" depart="6.10" departLane="best" departPos="random" departSpeed="0.00">
        <route edges="-48736640#1 -48736640#0 250295383#3 250295383#4 250295383#5 250295383#6 492965073#8 492965073#9 492965073#10 E9 -E110 -40236203#3 -40236203#2 -40236203#1 -40236203#0 40236144#0 40236144#1 40236144#2 40236144#3 40345930 222609002#0 222609002#1 222609002#2 222609002#3 222609002#4 43573547#2 48778497"/>
    </vehicle>
    <vehicle id="veh12" type="randomDist" depart="7.32" departLane="best" departPos="random" departSpeed="0.00">
        <route edges="-945793491#0 -222605084#2 -222605084#1 -222605084#0 -222605087#2 -222605087#1 -222605087#0 353939570#8 353939570#9 353939570#10 33909936#0 33909936#1 33909936#2 33909936#3 33909936#4 33909936#5 E14 48778431#1 48778431#2 48778431#3"/>
    </vehicle>
    <vehicle id="veh13" type="randomDist" depart="7.93" departLane="best" departPos="random" departSpeed="0.00">
        <route edges="43546793 43546789#3 -40304754#3 40265775#0 40265775#1 -43573547#10 -43573547#7 -43573547#6 -43573547#5 -43573547#3 -43573547#2 -43573547#1 -43573547#0 43573573#0 43573573#1 43573573#2 43573573#3 43573573#4 43544184#4"/>
    </vehicle>
    <vehicle id="veh14" type="randomDist" depart="8.54" departLane="best" departPos="random" departSpeed="0.00">
        <route edges="-43544184#4 -43573573#4 -43573573#3 43573769#0 43573769#1 48788485#9 E17 647347140#1 647347140#2 43573573#0"/>
    </vehicle>
    <vehicle id="veh15" type="randomDist" depart="9.15" departLane="best" departPos="random" departSpeed="0.00">
        <route edges="1135855912 48736613#1 43546343#0 43546343#1 43546343#2 492965073#10 E9 -E110 -40236203#3 -40236203#2 -40304754#5 -40304754#4 -40304754#3 -40304754#2 -40304754#1 43544179#0 43544179#2 43544179#3 43544179#4 43544179#6 43544179#7 43544179#8 43544179#9 43544138#0 43544138#1 43544138#2 43544138#3 43544138#4 43544138#5 43544138#6 43544138#7 43544138#8 43544001#11 43544001#12 43547017#0"/>
    </vehicle>
    <vehicle id="veh16" type="randomDist" depart="9.76" departLane="best" departPos="random" departSpeed="0.00">
        <route edges="383582500 43546460#9 43546460#10 43546460#11 43546506#0 43546506#1 43544179#0 43544179#2 43544179#3 43544179#4 43544179#6 43544179#7 43544179#8 43544179#9 43544179#10 43544184#0 43544184#1 43544184#2 43544184#3 43544184#4 258551283#1 48778431#3"/>
    </vehicle>
    <vehicle id="veh17" type="randomDist" depart="10.37" departLane="best" departPos="random" departSpeed="0.00">
        <route edges="353939570#5 353939570#6 353939570#7 353939570#8 353939570#9 353939570#10 33909936#0 33909936#1 33909936#2 33909936#3 33909936#4 33909936#5 E14 48778431#1 48778431#2 48778431#3 48778431#4 48778431#5 -43544001#15 -43544001#14 -43544001#13 -43544001#11 -43544001#10 -43544001#9 -43544001#8 -43544001#7 -43544001#6 -43544001#5 -43544001#3 -43544001#2 -43544001#1 48778479"/>
    </vehicle>
    <vehicle id="veh18" type="randomDist" depart="10.98" departLane="best" departPos="random" departSpeed="0.00">
        <route edges="48736646#0 48736646#1 -43546688#2 -43546785 -43546570#0 -48736646#0 -470210923#0 -E9 -492965073#10 -492965073#9 -492965073#8 -492965073#7 -492965073#6 -492965073#5 -492965073#4 -492965073#2 -E24 -176279225#3 -176279225#2 -48736650#2 -48736650#1 -48736650#0 -48736666#0 E13 -671606411 -E34 176279225#1"/>
    </vehicle>
    <vehicle id="veh20" type="randomDist" depart="12.20" departLane="best" departPos="random" departSpeed="0.00">
        <route edges="43544001#7 -43544202#2 -43544202#1 -43544202#0 -43544179#7 -43544179#6 -43544179#5 -43544179#3 -43544179#2 -43544179#1 40304754#0 40304754#2 40304754#3 40304754#4 40304754#5 40236203#2 40236203#3 -48778473#2 -48778473#1 48778476 -48778475#2 48778473#0"/>
    </vehicle>
    <vehicle id="veh21" type="randomDist" depart="12.81" departLane="best" departPos="random" departSpeed="0.00">
        <route edges="-48736641 250295383#1 250295383#3 250295383#4 250295383#5 250295383#6 492965073#8 492965073#9 492965073#10 E9 -E10 470210923#1 470210923#2 470210923#3 470210923#4 -E12 -E12.34 92198451#1 -859726677#1 -859726677#0"/>
    </vehicle>
    <vehicle id="veh22" type="randomDist" depart="13.42" departLane="best" departPos="random" departSpeed="0.00">
        <route edges="43546935#2 43546935#3 43547017#1 43547017#2 43547017#3 43547017#4 43547017#5 43544179#12 48788485#6 48788485#7 48788485#8 48788485#9 E15 -33909936#4 -33909936#3 -48778508#5 -48778508#4 -48778508#3 -48778508#2 -48778508#1 -48778508#0 1136117604 48778486 48778485#1"/>
    </vehicle>
    <vehicle id="veh23" type="randomDist" depart="14.03" departLane="best" departPos="random" departSpeed="0.00">
        <route edges="383582518#0 383582518#1 -43544138#1 -43544138#0 43544179#10 43544179#11 43544179#12 48788485#6 48788485#7 48788485#8 48788485#9 E15 -33909936#4 -33909936#3 -33909936#2 -33909936#1 -33909936#0 -353939570#10 -353939570#9 -353939570#8 222605087#0 222605087#1 222605087#2 222605084#0 222605084#1 -945793490#2 -945793490#1 -945793490#0 -222605084#5"/>
    </vehicle>
    <vehicle id="veh25" type="randomDist" depart="15.25" departLane="best" departPos="random" departSpeed="0.00">
        <route edges="-647621858 48797767#1 48797767#2 40299739#2 40299739#3 40314853#1 40314853#2 40314853#3 -492965073#2 E23 -48736620#6 -48736620#5 -48736620#3 -48736620#2 143207982#0 143207982#1 143207982#2 143207982#3 143207982#4 143207982#5 143207982#6 143207982#7 48736617#0 48736617#1"/>
    </vehicle>
    <vehicle id="veh26" type="randomDist" depart="15.86" departLane="best" departPos="random" departSpeed="0.00">
        <route edges="945793485#1 40269009#0 40269009#1 945793486#0 945793486#1 -40269009#0 -945793485#1 -945793485#0 273836978#1 40266621 40266909#0 -273835686#1 -530106516#2 48778481#8 48778481#9 48778489#0 48778489#3 353939585#0 353939585#1 353939585#2 1137794254 E14 48778431#1 48778431#2 48778431#3 48778431#4 48778431#5 -43544001#15 -43544001#14 -43544001#13 -43544001#11 -43544001#10 48778524#0 48778524#1 48778524#2 671642291"/>
    </vehicle>
    <vehicle id="veh27" type="randomDist" depart="16.47" departLane="best" departPos="random" departSpeed="0.00">
        <route edges="-353939570#9 -1250915720#6 -1250915720#5 -1250915720#4 -1250915720#3 -1250915723#0 -1250915721#0"/>
    </vehicle>
    <vehicle id="veh28" type="randomDist" depart="17.08" departLane="best" departPos="random" departSpeed="0.00">
        <route edges="289113778#1 -48778524#0 43544001#10 43544001#11 43544001#12 43544001#14 43544001#15 48788485#4 48788485#5 48788485#6 48788485#7 48788485#8 48788485#9 E17 48778487#1 353939586#0 353939586#1 48778480#0 48778480#4 48778480#5 48778480#7 E23 -48736620#6 -48736620#5 -48736620#3 -48736620#2 -48736620#1 -48736620#0 1017995181 43548506 48736622#0 383582854#0"/>
    </vehicle>
    <vehicle id="veh29" type="randomDist" depart="17.69" departLane="best" departPos="random" departSpeed="0.00">
        <route edges="578560104#5 578560104#6 -40236144#1 -40236144#0 40236203#0 -40236220#2 40266620 40236153#1 -40236232#0 40306162#1"/>
    </vehicle>
    <vehicle id="veh30" type="randomDist" depart="18.30" departLane="best" departPos="random" departSpeed="0.00">
        <route edges="422283114 -E40 -671606411 -E34 176279225#1 176279225#2 176279225#3 176279225#4 E26 48778481#2 48778481#4 48778481#8 48778481#9 578560104#2 578560104#4 258551321"/>
    </vehicle>
    <vehicle id="veh31" type="randomDist" depart="18.91" departLane="best" departPos="random" departSpeed="0.00">
        <route edges="-E11 -E11.41 -251916699#1 994066252#0 994066252#1 994066252#2 -1135856746#0 223942064#2 251916699#0 251916699#1 251916699#2 251916699#2.34 -E13 -470210923#3 -470210923#2 -470210923#1 -470210923#0 -E110 -40236203#3 -40236203#2 -40236203#1 -40236203#0 40236144#0 40236144#1 40236144#2 40236144#3 40345930 222609004#0 222609004#1 1158942155 222605085#0 48778494#0 48778494#1"/>
    </vehicle>
    <vehicle id="veh32" type="randomDist" depart="19.52" departLane="best" departPos="random" departSpeed="0.00">
        <route edges="40236203#0 40236203#1 -40304754#5 -40304754#4 -40304754#3 40265775#0 40265775#1 -43573547#10 -43573547#7 43546105#0 43546105#1 43546105#2 43546105#3 -43544179#6 -43544179#5"/>
    </vehicle>
    <vehicle id="veh33" type="randomDist" depart="20.13" departLane="best" departPos="random" departSpeed="0.00">
        <route edges="-48797765#2 -48797765#1 -48797765#0 43546648#5 48778475#0 48778475#1 48778473#0 48778473#1 48778473#2 -250295380#1 -250295380#0 43546789#3 -40304754#3 -40304754#2 -40304754#1 43544179#0 43544179#2 43544179#3 43544179#4 43544179#6 43544179#7 43544179#8 43544179#9 43544138#0 43544138#1 43544138#2 43544138#3 43544138#4 43544138#5 43544138#6 43544138#7"/>
    </vehicle>
    <vehicle id="veh34" type="randomDist" depart="20.74" departLane="best" departPos="random" departSpeed="0.00">
        <route edges="-40334245#1 -40334245#0 -40334244#0 353939570#2 353939570#3 353939570#5 353939570#6 353939570#7 353939570#8 353939570#9 353939570#10 33909936#0 33909936#1 33909936#2 33909936#3 33909936#4 33909936#5 E14 48778431#1 48778431#2 -258551283#1 -43544184#4 -43544184#3 -43544184#2 -43544184#1 -43544184#0 -43544179#10 43544138#0 43544138#1 43544138#2 43544138#3 43544138#4 43544138#5 43546935#1 43546935#2 43546935#3"/>
    </vehicle>
    <vehicle id="veh35" type="randomDist" depart="21.35" departLane="best" departPos="random" departSpeed="0.00">
        <route edges="383582497 48736613#3 48736613#4 492965073#9 492965073#10 E9 -E110 -40236203#3 -40236203#2 -40236203#1 -40236203#0 40236144#0 40236144#1 40236144#2 40236144#3 40345930 222609004#0 222609004#1 48778489#3 353939585#0 -354259933#3 -354259933#2 -354259933#1 -354259933#0 -33909936#0"/>
    </vehicle>
    <vehicle id="veh36" type="randomDist" depart="21.96" departLane="best" departPos="random" departSpeed="0.00">
        <route edges="-43546688#0 43546789#1 43546789#2 43546789#3 40304754#4 40304754#5 -40236203#1 -40236203#0 40236144#0 40236144#1 40236144#2 40236144#3 40345930 222609004#0 222609004#1 1158942155 40330575#0 40330575#1 40330575#2 40330575#3 40330575#4 -353939570#9 -353939570#8 -353939570#7 -353939570#6 222605086"/>
    </vehicle>
    <vehicle id="veh37" type="randomDist" depart="22.57" departLane="best" departPos="random" departSpeed="0.00">
        <route edges="-43546115 48778505#1 43546109 43573547#6 43573547#7 43573547#8 1378376381 40265778#0 40305706#0 40305706#1 40305706#2 354252039#0 354252039#1 40266619 43546648#0 43546648#2 43546648#4 48797765#0 48797773"/>
    </vehicle>
    <vehicle id="veh38" type="randomDist" depart="23.18" departLane="best" departPos="random" departSpeed="0.00">
        <route edges="43544001#8 43544001#9 43544001#10 43544001#11 43544001#12 43544001#14 43544001#15 48788485#4 48788485#5 48788485#6 48788485#7 48788485#8 48788485#9 E17 48778487#1 353939586#0 353939586#1 48778480#0 48778480#4 48778480#5 48778480#7 -E24 -176279225#3 40299241#0 40299241#1 -40299264#2 -40299264#1"/>
    </vehicle>
    <vehicle id="veh39" type="randomDist" depart="23.79" departLane="best" departPos="random" departSpeed="0.00">
        <route edges="48778441#0 48778441#2 48778441#3 -898519021 48778481#4 48778481#8 48778481#9 48778489#0 48778489#3 353939585#0 353939585#1 353939585#2 1137794254 E14 48778431#1 48778514#1 48778519"/>
    </vehicle>
    <vehicle id="veh40" type="randomDist" depart="24.40" departLane="best" departPos="random" departSpeed="0.00">
        <route edges="222609002#3 222609002#4 -43573547#1 -43573547#0 -647347140#2 -647347140#1 48778487#1 353939586#0 353939586#1 48778480#0 48778480#4 48778480#5 48778480#7 -E24 -176279225#3 -176279225#2 -176279225#1 -176279225#0 E37 75628811#1 33910068#0 33910068#1 48798094#1 48798094#2 E8"/>
    </vehicle>
    <vehicle id="veh41" type="randomDist" depart="25.01" departLane="best" departPos="random" departSpeed="0.00">
        <route edges="898519021 -273835688 -530106516#2 48778480#5 48778480#7 -E24 -176279225#3 -176279225#2 -176279225#1 -176279225#0 E37 75628811#1 33910068#0 33910068#1 40295499#0 40295499#1 40295499#2 40295499#3 40295499#4 994066570"/>
    </vehicle>
    <vehicle id="veh42" type="randomDist" depart="25.62" departLane="best" departPos="random" departSpeed="0.00">
        <route edges="530106516#0 40236093 273834906 40266909#0 -273835686#1 -530106516#2 48778481#8 48778481#9 48778489#0 1158942155 40330575#0 40330575#1 40330575#2 40330575#3 40330575#4 -353939570#9 -353939570#8 222605087#0 222605087#1 222605087#2 1250915720#0 -1250915722#5 -1251292611"/>
    </vehicle>
    <vehicle id="veh43" type="randomDist" depart="26.23" departLane="best" departPos="random" departSpeed="0.00">
        <route edges="43573547#5 43573547#6 43573547#7 43573547#8 1378376381 40265778#0 40236203#0 40236203#1 40236203#2 40236203#3 40236203#4 -E9 -492965073#10 -492965073#9 -492965073#8 -492965073#7 -492965073#6 48778464#0 48778464#1 -1135772297"/>
    </vehicle>
    <vehicle id="veh44" type="randomDist" depart="26.84" departLane="best" departPos="random" departSpeed="0.00">
        <route edges="48736614#2 -48736617#1 -48736617#0 -143207982#7 -143207982#6 -143207982#5 -143207982#4 -143207982#3 -143207982#2 -143207982#1 -143207982#0 48736620#2 48736620#3 48736620#5 48736620#6 48736633 -E24 -176279225#3 -176279225#2 -48736650#2 -48736650#1 -48736650#0 48736666#1 48736666#2"/>
    </vehicle>
    <vehicle id="veh45" type="randomDist" depart="27.45" departLane="best" departPos="random" departSpeed="0.00">
        <route edges="-48736640#1 -48736639#1 43546379"/>
    </vehicle>
    <vehicle id="veh46" type="randomDist" depart="28.06" departLane="best" departPos="random" departSpeed="0.00">
        <route edges="-647998063#3 -647998063#2 -48778524#3 -48778524#2 -48778524#1 -48778524#0 43544001#10 43544001#11 43544001#12 43544001#14 43544001#15 48788485#4 48788485#5 48788485#6 48788485#7 48788485#8 48788485#9 E15 -33909936#4 -33909936#3 -33909936#2 -33909936#1 -33909936#0 -353939570#10 -353939570#9 -353939570#8 222605087#0 222605087#1 222605087#2 1250915720#0 -1250915721#2"/>
    </vehicle>
    <vehicle id="veh47" type="randomDist" depart="28.67" departLane="best" departPos="random" departSpeed="0.00">
        <route edges="-92198451#2 -92198451#1 -92198451#0 -92198451#0.58 -E13 -470210923#3 -470210923#2 -470210923#1 -470210923#0 -E110 -40236203#3 40236153#0 40236153#1 -40236232#0 40306162#1"/>
    </vehicle>
    <vehicle id="veh48" type="randomDist" depart="29.28" departLane="best" departPos="random" departSpeed="0.00">
        <route edges="-1250915724#2 1250915720#2 1250915720#3 1250915720#4 1250915720#5 1250915720#6 353939570#9 353939570#10 33909936#0 33909936#1 33909936#2 33909936#3 33909936#4 33909936#5 E14 -43573769#1 -43573769#0 -43573573#2"/>
    </vehicle>
    <vehicle id="veh49" type="randomDist" depart="29.89" departLane="best" departPos="random" departSpeed="0.00">
        <route edges="43544184#3 43544184#4 258551283#1 48778431#3 48778431#4 -43544179#12 -43547017#5 -43547017#4 -43547017#3 -143207979#8 -143207979#7 -43544138#3 -43544138#2"/>
    </vehicle>
    <vehicle id="veh50" type="randomDist" depart="30.50" departLane="best" departPos="random" departSpeed="0.00">
        <route edges="-43546648#4 -256555440#1 671622981#2 -48797765#2 -48797765#1 -48797765#0 43546648#5 43546648#6 -E10 48736646#0 48736646#1 -43546688#2 -43546688#1 -43546688#0"/>
    </vehicle>
    <vehicle id="veh51" type="randomDist" depart="31.11" departLane="best" departPos="random" departSpeed="0.00">
        <route edges="1250915724#0 -1250915720#1 -1250915720#0 -222605087#2 -222605087#1 -222605087#0 353939570#8 353939570#9 -40330575#4 -40330575#3 -40330575#2 -40330575#1 -40330575#0 -1158942155 -222609004#1 -222609004#0 -40345930 -40236144#3 -40236144#2 -40236144#1 -40236144#0 40236203#0 40236203#1 40236203#2 40236203#3 40236203#4 -E9 -492965073#10 -492965073#9 -492965073#8 -250295383#6 -250295383#5 -250295383#4 -250295383#3"/>
    </vehicle>
    <vehicle id="veh52" type="randomDist" depart="31.72" departLane="best" departPos="random" departSpeed="0.00">
        <route edges="40295499#0 648182739#0 -671642329#1 -671642329#0 -48798094#1 -48798094#0 -33910068#0 -E27 48736612#1 48736612#2 48736610#0 48736610#1 48736610#2 48736610#3 143207982#0 143207982#1 48736619 -48736614#0"/>
    </vehicle>
    <vehicle id="veh54" type="randomDist" depart="32.94" departLane="best" departPos="random" departSpeed="0.00">
        <route edges="-48736603#1 -48736603#0 -40295499#2 -40295499#1 -40295499#0 -48798094#0 -33910068#0 E32 354250407#1 E35 E42 353939570#1 353939570#2 353939570#3 353939570#5 353939570#6 353939570#7 353939570#8 353939570#9 353939570#10 33909936#0 33909936#1 33909936#2 33909936#3 33909936#4 33909936#5 E14 48778431#1 48778431#2 48778431#3 48778431#4 -43544179#12 1232511776#0 1136289988 1136289987"/>
    </vehicle>
    <vehicle id="veh55" type="randomDist" depart="33.55" departLane="best" departPos="random" departSpeed="0.00">
        <route edges="-43546460#10 -43546460#9 -43546460#8 -43546460#7 -43546460#6 -43546460#4 -43546460#3 671642313 -671642318#0 43546460#4 43546460#6 43546460#7 43546460#8 43546460#9 43546460#10 43546460#11 43546506#0 43546506#1 40304754#0 40304754#2 40304754#3 40304754#4 40304754#5 -40236203#1 -40236203#0 40236144#0 40236144#1 40236144#2 40236144#3 40345930 222609004#0 222609004#1 1158942155 40330575#0 40330575#1 40330575#2 40330575#3 40330575#4 -353939570#9 -353939570#8 222605087#0 222605087#1 222605087#2 222605084#0 222605084#1 222605084#2 222605084#3 222605084#4 222605084#5"/>
    </vehicle>
    <vehicle id="veh56" type="randomDist" depart="34.16" departLane="best" departPos="random" departSpeed="0.00">
        <route edges="-40236153#0 -40236203#2 -40236203#1 -40236203#0 40236144#0 40236144#1 40236144#2 40236144#3 40345930 222609004#0 222609004#1 48778489#3 353939585#0 353939585#1 353939585#2 1137794254 E14 48778431#1 48778431#2 48778431#3 48778431#4 48778431#5"/>
    </vehicle>
    <vehicle id="veh57" type="randomDist" depart="34.77" departLane="best" departPos="random" departSpeed="0.00">
        <route edges="-43546039#0 -43544001#3 -43544001#2 -43546064#3 -43546064#2 -43546064#1 -43546064#0 -43544179#2 -43544179#1 40304754#0 40304754#2 40304754#3 -43546789#3 -43546789#2 -43546789#1 -43546789#0 43546519#2 43547296#1 -43546688#0"/>
    </vehicle>
    <vehicle id="veh58" type="randomDist" depart="35.38" departLane="best" departPos="random" departSpeed="0.00">
        <route edges="-40345956#1 -40345956#0 -40330575#2 -40330575#1 -40330575#0 -1158942155 353939586#1 48778480#0 48778480#4 48778480#5 48778480#7 E23 -48736620#6 -48736620#5 -48736620#3 -48736620#2 -48736620#1 -48736620#0 1017995181 43548506 48736622#0 383582854#0 -383582853 383582854#2"/>
    </vehicle>
    <vehicle id="veh59" type="randomDist" depart="35.99" departLane="best" departPos="random" departSpeed="0.00">
        <route edges="48778473#1 48778473#2 -250295380#1 -250295380#0 43546789#3 -40304754#3 -40304754#2 -40304754#1 43544179#0 -43547256#2 -43547256#1 -223883702"/>
    </vehicle>
    <vehicle id="veh60" type="randomDist" depart="36.60" departLane="best" departPos="random" departSpeed="0.00">
        <route edges="1250915722#0 -1250915723#2 -1250915720#2 -1250915720#1 -1250915720#0 -222605087#2 -222605087#1 -222605087#0 -353939570#7 -353939570#6 -353939570#5 -353939570#4 -353939570#2 -353939570#1 -353939570#0 E13 -671606411 E37 75628811#1 -E27 48736612#1 48736612#2 48736612#3 48736612#4 48736612#5 48736612#6 -383582854#2"/>
    </vehicle>
    <vehicle id="veh61" type="randomDist" depart="37.21" departLane="best" departPos="random" departSpeed="0.00">
        <route edges="222608881#1 -43544138#6 43546935#1 43546935#2 43546935#3 43547017#1 43547017#2 43547017#3 43547017#4 43547017#5 43544179#12 48788485#6 48788485#7 48788485#8 48788485#9 E15 -33909936#4 -33909936#3 -33909936#2 -33909936#1 -33909936#0 -353939570#10 -353939570#9 -1250915720#6 -1250915720#5 1250915721#0"/>
    </vehicle>
    <vehicle id="veh62" type="randomDist" depart="37.82" departLane="best" departPos="random" departSpeed="0.00">
        <route edges="-48778524#2 -48778524#1 -48778524#0 -43544001#9 43544197#0 43544197#1 43544197#2 43544197#4 43544197#5 43544197#6 43544197#7 43544197#8 -43544179#8 -43544179#7 -43544179#6 -43544179#5 -43544179#3 -43544179#2 -43544179#1 -43546506#1 -43546506#0 92198453#0 92198453#1 92198453#2 92198453#3 92198453#4 92198453#5 470210923#4 -E11 -E11.41 -251916699#1 -251916699#0 -223942064#2 1135856746#0"/>
    </vehicle>
    <vehicle id="veh63" type="randomDist" depart="38.43" departLane="best" departPos="random" departSpeed="0.00">
        <route edges="43546460#10 43546460#11 92198453#0 92198453#1 92198453#2 92198453#3 92198453#4 92198453#5 -470210923#3 -470210923#2 -470210923#1 -470210923#0 -E9 -492965073#10 -492965073#9 -492965073#8 -492965073#7 -492965073#6 -492965073#5 -492965073#4 -492965073#2 E23 -48736620#6 -48736620#5 -48736620#3 -48736620#2 -48736620#1 -48736620#0 1017995181 43548506 -48736601"/>
    </vehicle>
    <vehicle id="veh64" type="randomDist" depart="39.04" departLane="best" departPos="random" departSpeed="0.00">
        <route edges="43546449#1 43546449#2 -43547579#0 40314853#1 40314853#2 40314853#3 -492965073#2 -E24 -176279225#3 -176279225#2 -48736650#2 -48736650#1 -383582519"/>
    </vehicle>
    <vehicle id="veh65" type="randomDist" depart="39.65" departLane="best" departPos="random" departSpeed="0.00">
        <route edges="40330575#4 353939570#10 33909936#0 33909936#1 33909936#2 33909936#3 33909936#4 33909936#5 E14 48778431#1 48778431#2 -258551283#1 -43544184#4 -43544184#3 -43544184#2 -43544184#1 -43544184#0 -43544179#10 43544138#0 -43546092 43544197#8"/>
    </vehicle>
    <vehicle id="veh66" type="randomDist" depart="40.26" departLane="best" departPos="random" departSpeed="0.00">
        <route edges="40345956#2 40345956#3 40330557#2 40330557#3 40330557#4 40330571#1 40330571#2 40330571#3 -40330575#0 -1158942155 -222609004#1 -222609004#0 -40345930 -40236144#3 -40236144#2 -40236144#1 -40236144#0 40236203#0 40236203#1 -40304754#5 -40304754#4 -40304754#3 -40304754#2 -40304754#1 43544179#0 -43547256#2"/>
    </vehicle>
    <vehicle id="veh67" type="randomDist" depart="40.87" departLane="best" departPos="random" departSpeed="0.00">
        <route edges="-1136301812#1 -1136301812#0 48778443#0 48778443#1 48778443#2 -647762524 -48797765#1 -48797765#0 43546648#5 48778475#0 48778475#1 48778473#0 48778473#1 48778473#2 -40236203#3 -40236203#2 -40236203#1 -40236203#0 40236144#0 40236144#1 40236144#2 40236144#3 40345930 222609004#0 222609004#1 48778489#3 353939585#0 -354259933#3 48778508#0 48778508#1"/>
    </vehicle>
    <vehicle id="veh68" type="randomDist" depart="41.48" departLane="best" departPos="random" departSpeed="0.00">
        <route edges="-43544001#9 43544197#0 43544197#1 43544197#2 43544197#4 43544197#5 43544197#6 43544197#7 43544197#8 -43544179#8 -43544179#7 -43544179#6 -43544179#5 -43544179#3 -43544179#2 -43544179#1 40304754#0 -40265774#1 996489799#0 996489799#1"/>
    </vehicle>
    <vehicle id="veh69" type="randomDist" depart="42.09" departLane="best" departPos="random" departSpeed="0.00">
        <route edges="-48736646#1 -48736646#0 -470210923#0 -E9 -492965073#10 -492965073#9 -492965073#8 -492965073#7 -492965073#6 -492965073#5 -48797771#2 647741479 1136301813 1136301814#0"/>
    </vehicle>
    <vehicle id="veh70" type="randomDist" depart="42.70" departLane="best" departPos="random" departSpeed="0.00">