<?xml version="1.0" encoding="UTF-8"?>

<!-- generated on 2025-06-15 22:57:55.291529 by randomTrips.py v1_22_0+0002-63e50f52594
<configuration>
    <net-file value="E:/licenta/oras-mediu/2025-06-05-11-45-23\osm.net.xml"/>
    <output-trip-file value="E:/licenta/oras-mediu/2025-06-05-11-45-23\trips.pedestrians.xml"/>
    <pedestrians value="True"/>
    <prefix value="ped"/>
    <seed value="39177"/>
    <max-distance value="500.0"/>
    <validate value="True"/>
    <end value="1200.0"/>
    <period value="5.0"/>
</configuration>
-->

<!-- generated on 2025-06-15 22:57:55 by Eclipse SUMO duarouter Version 1.22.0
<duarouterConfiguration xmlns:xsi="http://www.w3.org/2001/XMLSchema-instance" xsi:noNamespaceSchemaLocation="http://sumo.dlr.de/xsd/duarouterConfiguration.xsd">

    <input>
        <net-file value="E:/licenta/oras-mediu/2025-06-05-11-45-23\osm.net.xml"/>
        <route-files value="E:/licenta/oras-mediu/2025-06-05-11-45-23\trips.pedestrians.xml"/>
    </input>

    <output>
        <output-file value="routes.rou.xml"/>
        <alternatives-output value="NUL"/>
    </output>

    <time>
        <begin value="0"/>
        <end value="1200.0"/>
    </time>

    <report>
        <no-warnings value="true"/>
        <ignore-errors value="true"/>
        <no-step-log value="true"/>
    </report>

</duarouterConfiguration>
-->

<routes xmlns:xsi="http://www.w3.org/2001/XMLSchema-instance" xsi:noNamespaceSchemaLocation="http://sumo.dlr.de/xsd/routes_file.xsd">
    <person id="ped0" depart="0.00">
        <walk edges="-945794111 40236146 -40345930 -40236144#3 -40236144#2 -40236144#1 -40236144#0 40305706#0 40305706#1 40305706#2 354252039#0 354252039#1 40266619 -40306149 40236164"/>
    </person>
    <person id="ped1" depart="5.00">
        <walk edges="48797767#1 -48797767#1 48797767#0 848060815 -48736637 40314853#2 40314853#3 -492965073#2 E23 -48736620#6 -48736620#5"/>
    </person>
    <person id="ped2" depart="10.00">
        <walk edges="48797766#0 848060815 -48736637 40314853#2 40314853#3 -492965073#2 E23 -48736620#6 -48736620#5 -48736620#3 -48736620#2 143207982#0 143207982#1 143207982#2 -40314583#7 -40314583#6 48736631"/>
    </person>
    <person id="ped3" depart="15.00">
        <walk edges="40265777#0 -40304754#5 40236203#1"/>
    </person>
    <person id="ped4" depart="20.00">
        <walk edges="-48778492 48778492 40266907#1 40266907#0 40236093 530106516#0 48778480#4 -48736648#0 48778481#9 48778489#0 1158942155 40330575#0 -40330575#1 -40330575#2 -40330575#3 -40330575#4 353939570#9 353939570#8 -222605087#0 222605087#1 222605087#2 222605084#0 222605084#1"/>
    </person>
    <person id="ped5" depart="25.00">
        <walk edges="-945793490#4 -945793490#3 222605084#1 222605084#0 222605087#2 222605087#1 222605086 -353939570#6 -40330557#0 -40330557#2 -40330557#3 -40330571#0 -40330571#1 -40330571#2"/>
    </person>
    <person id="ped6" depart="30.00">
        <walk edges="-40314583#1 40314583#1 143207982#8 143207982#7 143207982#6 143207982#5 143207982#4 143207982#3 143207982#2 143207982#1 143207982#0 -48736620#2 -48736620#3 -48736620#5 -48736620#6 E23 -492965073#2 40314853#3 40314853#2 -48736637 848060815 -40299283"/>
    </person>
    <person id="ped7" depart="35.00">
        <walk edges="48797773 48797765#0 -43546648#5 43546648#6 -E10 48736646#0 43546570#0"/>
    </person>
    <person id="ped8" depart="40.00">
        <walk edges="40330575#4 -40330575#3 -40330575#2 -40330575#1 -40330575#0 222605085#0 48778494#0 48797774 1136117604 -48778508#0 -48778508#1 -48778508#2"/>
    </person>
    <person id="ped9" depart="45.00">
        <walk edges="-48736631 40314583#6 40314583#7 143207982#2 143207982#1 143207982#0 48736610#3 48736610#2 48736610#1 48736610#0 48736612#2 -48736612#1 -48736612#0 33910068#0 33910068#1 40295499#0 40295499#1 40295499#2 48736603#0 -48736603#0 40295499#3 -40295499#4"/>
    </person>
    <person id="ped10" depart="50.00">
        <walk edges="40265777#1 40265777#0 -40304754#5 40236203#2 40236203#3 48778473#2 48778473#1"/>
    </person>
    <person id="ped11" depart="55.00">
        <walk edges="-945793490#2 -222605084#1 -222605084#0 1250915720#0 1250915720#1 -1250915724#0 -1250915721#1"/>
    </person>
    <person id="ped12" depart="60.00">
        <walk edges="48736648#1 48778481#8 530106516#0 273835686#0 40266909#1 40266908#1 647770574 48778454#0"/>
    </person>
    <person id="ped13" depart="65.00">
        <walk edges="43544001#11 43544138#8 43544138#7 43544138#6 43544138#5 43546057 -43544197#5 -43544197#6 43546088"/>
    </person>
    <person id="ped14" depart="70.00">
        <walk edges="-1136283379#1 1136283379#1 1136283381 40236144#0 40305706#0 40305706#1 40305706#2 354252039#0 354252039#1 40266619 43546648#0 -43546648#2 256555440#0 671622981#1 -647755347#0 647755347#1 -1136301812#1 -1136301812#0"/>
    </person>
    <person id="ped15" depart="75.00">
        <walk edges="92198453#4 92198453#5 470210923#4 -E11 -E11.41 -251916699#1 251916699#0"/>
    </person>
    <person id="ped16" depart="80.00">
        <walk edges="-40299271 -40299264#2 40299241#1 40299241#0 -176279225#3 -E24 48736633 48736620#6 48736620#5 48736620#3 48736620#2 48736610#3 -48736610#2 -48736610#1 48736611#0"/>
    </person>
    <person id="ped17" depart="85.00">
        <walk edges="-43544202#0 143207979#5 43544197#6 43546088 -43544138#2 43544138#1 43544138#0 -43544179#10 -43544184#0 -48778522 -1136289990"/>
    </person>
    <person id="ped18" depart="90.00">
        <walk edges="1136117604 48778486 48778485#1"/>
    </person>
    <person id="ped19" depart="95.00">
        <walk edges="48778431#2 48778431#1 E14 33909936#5"/>
    </person>
    <person id="ped20" depart="100.00">
        <walk edges="-996486453 647998063#1 -48778524#3 671642291"/>
    </person>
    <person id="ped21" depart="105.00">
        <walk edges="-48736620#5 -48736620#3 -48736620#2 143207982#0 143207982#1 143207982#2 -40314583#7 48736616#0 48736616#1"/>
    </person>
    <person id="ped22" depart="110.00">
        <walk edges="40236146 40265780#1 40265780#0 -43573547#7 43573547#6 43546109 48778505#2"/>
    </person>
    <person id="ped23" depart="115.00">
        <walk edges="-40309190 578560104#5 578560104#6 40236144#1 40236144#0 40305706#0 40305706#1 40305706#2 354252039#0 354252039#1 40266619 43546648#0 -43546648#2 256555440#0 671622981#1 -647755347#0 -647755347#1 1136301818"/>
    </person>
    <person id="ped24" depart="120.00">
        <walk edges="40304754#5 40304754#4 43546789#3 43546789#2 43546789#1 -43546688#0 43546688#1 -43546785 43546570#1"/>
    </person>
    <person id="ped25" depart="125.00">
        <walk edges="43544197#5 43544197#6 43546088 -43544138#2 -43544138#1 -43544138#0 43544179#10 43544184#0 48778522"/>
    </person>
    <person id="ped26" depart="130.00">
        <walk edges="-40330575#2 -40345956#0 -40345956#1 -40345956#2 -40345956#3 40330557#2 40330557#3"/>
    </person>
    <person id="ped27" depart="135.00">
        <walk edges="43573769#0 -43573769#1"/>
    </person>
    <person id="ped28" depart="140.00">
        <walk edges="E26 -E24 176279225#3 176279225#2 176279225#1 -E34 -671606411 E42"/>
    </person>
    <person id="ped29" depart="145.00">
        <walk edges="-48778502#1 -33909936#1 354259933#0 250295381 222605085#1 222605085#0 -40330575#0 -40330575#1 -40330575#2 -40330575#3 48778495#1"/>
    </person>
    <person id="ped30" depart="150.00">
        <walk edges="-43544138#4 -43544138#3 -43544138#2 43544138#1 43544138#0"/>
    </person>
    <person id="ped31" depart="155.00">
        <walk edges="-48736638#1 -48736638#2 -48778446#1"/>
    </person>
    <person id="ped32" depart="160.00">
        <walk edges="-304695350#1 304695350#0 -48736638#1 -48736638#0 40314853#3 -492965073#2 E23 -48736620#6 -48736620#5 -48736620#3 -48736620#2 143207982#0 143207982#1 143207982#2 143207982#3 143207982#4 143207982#5 143207982#6 143207982#7 143207982#8 -40314583#0"/>
    </person>
    <person id="ped33" depart="165.00">
        <walk edges="273836978#1 40266621 40266909#0 -273835686#1 -530106516#2"/>
    </person>
    <person id="ped34" depart="170.00">
        <walk edges="40299739#3 40299739#2 48797767#2"/>
    </person>
    <person id="ped35" depart="175.00">
        <walk edges="250295383#4 -250295383#3 48736640#0 -48736639#1 43546379 43547579#4"/>
    </person>
    <person id="ped36" depart="180.00">
        <walk edges="48778475#2 -48778473#0 -48778473#1 48778473#2"/>
    </person>
    <person id="ped37" depart="185.00">
        <walk edges="-43547579#0 -43546449#2 -43546449#1 -43546449#0 -48778446#2 -48778446#1 -48778446#0 -48797771#2 647741479 1136301813 48778441#0 -48778441#2"/>
    </person>
    <person id="ped38" depart="190.00">
        <walk edges="48736612#1 48736612#2 48736610#0 48736610#1 48736656#0"/>
    </person>
    <person id="ped39" depart="195.00">
        <walk edges="43546039#0 43544001#5 43544001#6 43544001#7 43544001#8 43544001#9 43544001#10 43544138#8"/>
    </person>
    <person id="ped40" depart="200.00">
        <walk edges="-647226815#0 647226815#1 43544197#4 43544197#5 43544197#6 43544197#7 43544197#8 -43544179#8"/>
    </person>
    <person id="ped41" depart="205.00">
        <walk edges="945793491#0 -222605084#2 222605084#1 222605084#0 222605087#2 222605087#1 222605086 353939570#5 -353939570#4 -353939570#2 40334244#0 40334244#1"/>
    </person>
    <person id="ped42" depart="210.00">
        <walk edges="222608881#1 222608881#0 -43544197#2 -43544197#4 43544197#5 143207979#5 143207979#4 143207979#3 143207979#2 143207979#1"/>
    </person>
    <person id="ped43" depart="215.00">
        <walk edges="-48778524#4 48778524#4 48778524#3 48778524#2 48778524#1 48778524#0 -43544001#10 43544001#11 43544046 43546935#2"/>
    </person>
    <person id="ped44" depart="220.00">
        <walk edges="-40309190 578560104#5 578560104#6 40236144#1 40236144#0 40305706#0 40236220#0 40236220#1 40266620 40236153#1"/>
    </person>
    <person id="ped45" depart="225.00">
        <walk edges="48736632#1 48736632#0 143207982#4 143207982#3 143207982#2 143207982#1 -143207982#0"/>
    </person>
    <person id="ped46" depart="230.00">
        <walk edges="40236203#0 40265778#0 1378376381 -43573547#10 -43573547#7 -43573547#6"/>
    </person>
    <person id="ped47" depart="235.00">
        <walk edges="-353939570#2 -353939570#4 353939570#5 222605086 222605087#1 222605087#2 222605084#0 222605084#1 -222605084#2 -222605084#3 222605084#4 222605084#5 945793490#0"/>
    </person>
    <person id="ped48" depart="240.00">
        <walk edges="48778498#2 48778498#1 353939585#0 354259933#3 -48778508#0 -48778508#1 -48778508#2 48778508#3"/>
    </person>
    <person id="ped49" depart="245.00">
        <walk edges="945794110 -48778508#0 354259933#3 353939585#1 647347140#1 647347140#2 43573573#0 43573573#1"/>
    </person>
    <person id="ped50" depart="250.00">
        <walk edges="945793485#0 273836978#0 40306149 -43546648#1 43546648#2 43546648#4 43546648#5 -48778475#0"/>
    </person>
    <person id="ped51" depart="255.00">
        <walk edges="-1250915726 1250915720#5 -1250915720#5 -1250915720#6 353939570#9 -353939570#10 222605085#2 -250295381 -354259933#0 -33909936#0 33909936#0"/>
    </person>
    <person id="ped52" depart="260.00">
        <walk edges="-48778505#1 -43546109"/>
    </person>
    <person id="ped53" depart="265.00">
        <walk edges="48797771#2 48797771#0 -48778454#1 48778461#0 -1136301819 1136301818"/>
    </person>
    <person id="ped54" depart="270.00">
        <walk edges="-40236144#3 -40345930 -222609004#0 -222609004#1 48778489#3 353939585#0 -354259933#3 1136117604"/>
    </person>
    <person id="ped55" depart="275.00">
        <walk edges="-48778500#2 -647347140#2 43573573#0 43573573#1 43573573#2 43573573#3 -48778518 -48778517#0"/>
    </person>
    <person id="ped56" depart="280.00">
        <walk edges="48778514#2 48778514#1 48778431#1 43573769#1 43573769#0"/>
    </person>
    <person id="ped57" depart="285.00">
        <walk edges="-43544197#7 -43546092 -43544138#1"/>
    </person>
    <person id="ped58" depart="290.00">
        <walk edges="-40330575#1 -40330575#0 -1158942155 -222609004#1 -222609004#0 -40345930 -40236144#3 -40236144#2 -40236144#1 1136283381"/>
    </person>
    <person id="ped59" depart="295.00">
        <walk edges="222609002#2 222609002#1 222609002#0 -222609004#0 222609004#1 1158942155 40330575#0"/>
    </person>
    <person id="ped60" depart="300.00">
        <walk edges="48778510#1 -48778510#0 43573573#1 43573573#2 43573573#3 43573573#4 43544184#4 258551283#1"/>
    </person>
    <person id="ped61" depart="305.00">
        <walk edges="33909840#0 25379984#0 E37 75628811#1 -E27 48736658 48736657#1 647689085"/>
    </person>
    <person id="ped62" depart="310.00">
        <walk edges="48778504 48778503#0 43573547#2 43573547#3 -43573547#5 -43573547#6 -43573547#7 40265780#0 -671642324"/>
    </person>
    <person id="ped63" depart="315.00">
        <walk edges="48797766#1 48797766#0 40299283 40299739#0 40299241#3 40299241#2 40299241#1 -40299241#0 -176279225#2 -176279225#1 -176279225#0 E37 75628811#1 -E27 48736658 -48736657#0"/>
    </person>
    <person id="ped64" depart="320.00">
        <walk edges="-40236144#2 -40236144#1 -40236144#0 40236203#0 40236203#1 40236203#2 40236203#3 -250295380#1 -250295384"/>
    </person>
    <person id="ped65" depart="325.00">
        <walk edges="176279225#4 -E24 -176279225#3 40299241#0 40299241#1 -40299264#2 40299271 -40299264#0"/>
    </person>
    <person id="ped66" depart="330.00">
        <walk edges="48736620#2 -48736610#3 48736624#0 48736624#1"/>
    </person>
    <person id="ped67" depart="335.00">
        <walk edges="40315648#0 1378376381 40265778#0 40305706#0 40236220#0 40236228#0"/>
    </person>
    <person id="ped68" depart="340.00">
        <walk edges="-40304754#5 40236203#2 40236203#3 48778473#2 -48778473#1 -48778473#0 -48778475#1 48778475#0 43546648#5"/>
    </person>
    <person id="ped69" depart="345.00">
        <walk edges="-40314583#2 -40314583#3 -40314583#4 -40314583#5 -40314583#6 -40314583#7 143207982#2 143207982#1 143207982#0 -48736620#2 -48736620#3 -48736620#5 48736620#6 48736633 -E24 -176279225#3 40299241#0 40299241#1 -40299264#2 -40299271"/>
    </person>
    <person id="ped70" depart="350.00">
        <walk edges="-996486454#0 -647998063#2 -48778524#3 -48778524#2 -48778524#1 -48778524#0 -43544001#9 -43544001#8 -43544001#7 43544001#6"/>
    </person>
    <person id="ped71" depart="355.00">
        <walk edges="48797774 1136117604 -354259933#3 353939585#0 48778498#1 48778498#2 222609002#2 -222609002#3 -222609002#4 -43573547#2 48778497"/>
    </person>
    <person id="ped72" depart="360.00">
        <walk edges="-48736625 48736624#2 48736624#3 48736612#5 48736612#6 48736612#7 -48736612#7"/>
    </person>
    <person id="ped73" depart="365.00">
        <walk edges="-176279225#2 -176279225#3 -E24 -492965073#2 40314853#3 -48736638#0"/>
    </person>
    <person id="ped74" depart="370.00">
        <walk edges="-40236153#0 -40236203#3 48778473#2 -48778473#1 -48778473#0 -48778475#1 48778475#0 43546648#5 -48797765#0 -48797765#1 -48797765#2 671622981#3 647755347#0 647755347#1 -1136301812#1 1136301812#0"/>
    </person>
    <person id="ped75" depart="375.00">
        <walk edges="48736622#0 43548506 -647677163"/>
    </person>
    <person id="ped76" depart="380.00">
        <walk edges="492965073#3 48797771#2 48778456#1 48778456#0 48778464#1 48778464#2 48778464#3 -1136301812#0 -1136301812#1 647755347#1"/>
    </person>
    <person id="ped77" depart="385.00">
        <walk edges="43544138#0 43544179#10 43544184#0 43544184#1 43544184#2 43544184#3 -43573573#4 -43573573#3 43573769#0 43573769#1"/>
    </person>
    <person id="ped78" depart="390.00">
        <walk edges="48736620#6 -48736620#5 -48736620#3 -48736620#2 -48736620#1 -1136279381 1136279381"/>
    </person>
    <person id="ped79" depart="395.00">
        <walk edges="354259933#2 -1136117604 -48797774"/>
    </person>
    <person id="ped80" depart="400.00">
        <walk edges="353939570#10 353939570#9 -1250915720#6 -1250915720#5 1250915721#0 1250915721#1 1250915721#2 1250915720#0 -222605084#0 945793490#5 945793490#4"/>
    </person>
    <person id="ped81" depart="405.00">
        <walk edges="671642291 -48778524#3 647998063#2"/>
    </person>
    <person id="ped82" depart="410.00">
        <walk edges="258551317 1136301818 -647755347#1 -647755347#0 671622981#1 671622981#2 -48797765#2 -48797765#1 -48797765#0 43546648#5 48778475#0"/>
    </person>
    <person id="ped83" depart="415.00">
        <walk edges="-40265793#0 -40265793#1 48778505#3 48778505#2 48778505#1 -43546115 -43573547#3 -43573547#2 -222609002#4 222609002#4"/>
    </person>
    <person id="ped84" depart="420.00">
        <walk edges="222605089#1 -222605089#0 48788485#3 -43544001#15 -43544001#14 -43544001#13 -43544001#11 -43544001#10 48778524#0 48778524#1 -48778524#2 -48778524#3 -647998063#2"/>
    </person>
    <person id="ped85" depart="425.00">
        <walk edges="-530103972 -250295383#6 -250295383#5 -250295383#4 -250295383#3 -250295383#1"/>
    </person>
    <person id="ped86" depart="430.00">
        <walk edges="48778456#0 48778464#0 -492965073#6 -492965073#7 -492965073#8 -492965073#9 43546343#2 43546343#1 250295382"/>
    </person>
    <person id="ped87" depart="435.00">
        <walk edges="48736620#0 48736623 48736612#7 -48736612#6 48736602"/>
    </person>
    <person id="ped88" depart="440.00">
        <walk edges="353939570#6 222605086 -222605087#1 -222605087#2 -1250915720#0"/>
    </person>
    <person id="ped89" depart="445.00">
        <walk edges="-40236203#2 -40236203#3 -E110 -E9 -492965073#10 -492965073#9 -492965073#8 -492965073#7"/>
    </person>
    <person id="ped90" depart="450.00">
        <walk edges="470210923#1 -E10 43546648#6 -43546648#5 48797765#0 48797773"/>
    </person>
    <person id="ped91" depart="455.00">
        <walk edges="43546105#0 43573547#6 43573547#5 -43573547#3 -43573547#2 -222609002#4 -222609002#3 222609002#2 48778498#2 48778498#1"/>
    </person>
    <person id="ped92" depart="460.00">
        <walk edges="-43545645#1 143207979#0 43546064#2 -43546064#1 -354252035"/>
    </person>
    <person id="ped93" depart="465.00">
        <walk edges="33909936#0 -33909936#0 -354259933#0 -354259933#1 -354259933#2 -48778508#0"/>
    </person>
    <person id="ped94" depart="470.00">
        <walk edges="492965073#5 48778446#0 48778446#1 48778446#2 -43546449#0 -43546449#1 -43546449#2 43547579#3"/>
    </person>
    <person id="ped95" depart="475.00">
        <walk edges="40314583#2 40314583#1 143207982#8 143207982#7 143207982#6 143207982#5 143207982#4 143207982#3 143207982#2 143207982#1 143207982#0 -48736620#2 -48736620#3 -48736620#5 -48736620#6 E23 -492965073#2 -40314853#3 48736638#0 48736638#1 48736638#2 48778446#1 48778446#2 43546449#0 43546449#1 -1054663939"/>
    </person>
    <person id="ped96" depart="480.00">
        <walk edges="-945793491#1 -945793490#4 -945793490#3 -945793490#2 -945793490#1 1251292610 222605084#3 222605084#2"/>
    </person>
    <person id="ped97" depart="485.00">
        <walk edges="43546935#1 43544138#5 43544138#4 -143207979#7 143207979#8 43547017#3 43547017#4 43547017#5 1232511776#0 1136289988"/>
    </person>
    <person id="ped98" depart="490.00">
        <walk edges="1251292610 -1251292610 -222605084#3 -945793491#0"/>
    </person>
    <person id="ped99" depart="495.00">
        <walk edges="40299739#1 -40299283 848060815 -48736637 -40314853#2 48736638#0"/>
    </person>
    <person id="ped100" depart="500.00">
        <walk edges="-43546109 43573547#5 -43573547#3 -43573547#2 -222609002#4 -222609002#3 222609002#2 48778498#2 48778498#1 353939585#0 -354259933#3 1136117604 48778486 48778485#1"/>
    </person>
    <person id="ped101" depart="505.00">
        <walk edges="40299264#2 40299241#1 40299241#0 -176279225#3 -E24 48778480#7 -898519021 48778441#3"/>
    </person>
    <person id="ped102" depart="510.00">
        <walk edges="304695350#1 304695350#0 -48736638#2 48778446#0 48797771#2 48797771#0 -48778454#1 48778461#0 48778461#1 1136301812#1 -647755347#1"/>
    </person>
    <person id="ped103" depart="515.00">
        <walk edges="-143207982#3 -143207982#2 143207982#1 143207982#0 -48736620#2 -48736620#3 -48736620#5 -48736620#6 E23 -492965073#2 40314853#3 -48736638#0 -48736638#1 304695350#0 -304695350#1"/>
    </person>
    <person id="ped104" depart="520.00">
        <walk edges="43546109 -48778505#1 -43546115 -43573547#3 -43573547#2 -222609002#4 -222609002#3 222609002#2 48778498#2 -48778500#0 48778500#1 48778500#2"/>
    </person>
    <person id="ped105" depart="525.00">
        <walk edges="-1250915720#4 -1250915720#5 -1250915720#6 353939570#9 -353939570#10 222605085#2 -250295381 -354259933#0 -33909936#0 33909936#0"/>
    </person>
    <person id="ped106" depart="530.00">
        <walk edges="492965073#9 -48736613#4 -48797768 -250295383#5 -250295383#4 -250295383#3 48736640#0 48736639#1 48736639#0 -43546449#1 -43546449#2 1054663937"/>
    </person>
    <person id="ped107" depart="535.00">
        <walk edges="222605084#3 1251292610 -945793490#1 -945793490#2 -222605084#1 -222605084#0 1250915720#0 1250915721#2 1250915721#1 1250915721#0 -1250915720#5 -1250915720#6 353939570#9 -40330575#4 -48778495#1 -48778495#0 -1136119744"/>
    </person>
    <person id="ped108" depart="540.00">
        <walk edges="43546935#1 -43544138#6"/>
    </person>
    <person id="ped109" depart="545.00">
        <walk edges="1136289989 48778522 43544184#0 43544179#10 -43544138#0 -43544138#1 -43544138#2 -43544138#3 -43544138#4 -43544138#5 -43544138#6 -222608881#1 -67736383"/>
    </person>
    <person id="ped110" depart="550.00">
        <walk edges="48797765#1 -48797765#0 43546648#5 48778475#0 -48778475#1 -48778473#0 48778473#1"/>
    </person>
    <person id="ped111" depart="555.00">
        <walk edges="-40269009#2 -40269009#1 40269009#0 945793485#1"/>
    </person>
    <person id="ped112" depart="560.00">
        <walk edges="40330575#4 -40330575#3 -40330575#2 -40330575#1 -40330575#0 -1158942155 -222609004#1 -222609004#0 -40345930 -40236144#3 40236144#2"/>
    </person>
    <person id="ped113" depart="565.00">
        <walk edges="48736656#3 48736656#2 48736656#1 48736656#0 -48736610#2 -48736610#3 -48736620#1 -1136279381"/>
    </person>
    <person id="ped114" depart="570.00">
        <walk edges="1158942155 40330575#0 -40330575#1 -40330575#2 -40330575#3 48778495#1 -48778495#0"/>
    </person>
    <person id="ped115" depart="575.00">
        <walk edges="48778495#1 -40330575#3 40345956#0 40345956#1"/>
    </person>
    <person id="ped116" depart="580.00">
        <walk edges="222605084#2 222605084#3 1251292610 -945793490#1 -945793490#2 222605084#1 222605084#0 222605087#2 222605087#1 222605086 353939570#5 -353939570#4 -353939570#2 -353939570#1 40334245#2"/>
    </person>
    <person id="ped117" depart="585.00">
        <walk edges="-859732801#1 859732801#1 48778493#2 48778493#1 48778493#0 -40236144#3 -40345930 40236146 40265780#1 40265780#0 -43573547#7 43546105#0"/>
    </person>
    <person id="ped118" depart="590.00">
        <walk edges="43546449#1 43546449#0 48778446#2 48778446#1 48778446#0 48797771#2 48797771#0 -48778454#1 48778461#0 1136301819 -48797772 48797772"/>
    </person>
    <person id="ped119" depart="595.00">
        <walk edges="176279225#2 176279225#3 -E24 48736633 48736620#6 -48736620#5 -48736620#3 -48736620#2 143207982#0 143207982#1 143207982#2 -40314583#7 -48736616#0"/>
    </person>
    <person id="ped120" depart="600.00">
        <walk edges="48778474#0 647762524 -48797765#2 671622981#2 -256555440#1 -43546648#2 -43546648#1 40306149 273836978#0"/>
    </person>
    <person id="ped121" depart="605.00">
        <walk edges="-859732801#1 859732801#1 48778493#2 48778493#1 48778493#0 -40236144#2"/>
    </person>
    <person id="ped122" depart="610.00">
        <walk edges="48778454#0 48797771#0 48797771#2 48778446#0 48778446#1 1054663943"/>
    </person>
    <person id="ped123" depart="615.00">
        <walk edges="-671642291 -48778524#2 -48778524#1 -48778524#0 -43544001#9 -43544001#8 -43544001#7 -43544624#3"/>
    </person>
    <person id="ped124" depart="620.00">
        <walk edges="-33909936#3 -33909936#4 E15 1137794254 353939585#2 -647347140#1 48778500#2"/>
    </person>
    <person id="ped125" depart="625.00">
        <walk edges="43544138#1 -43544138#2 -43544138#3 -43544138#4 -43544138#5 -43544138#6 -43544138#7 -43544138#8 43544001#10 -43544001#9"/>
    </person>
    <person id="ped126" depart="630.00">
        <walk edges="40314853#1 40314853#2 40314853#3 -492965073#2 E23 -48736620#6 -48736620#5 -48736620#3 -48736620#2 143207982#0 143207982#1 143207982#2 143207982#3 143207982#4 143207982#5 143207982#6 143207982#7 143207982#8 40314583#1 40314583#2"/>
    </person>
    <person id="ped127" depart="635.00">
        <walk edges="1136119743#1 -1136119744 -48778495#0 -48778495#1 -40330575#4 353939570#9 -1250915720#6 -1250915720#5 1250915721#0 1250915721#1 1250915721#2 1250915720#0 -222605084#0 945793490#5 -945793491#1"/>
    </person>
    <person id="ped128" depart="640.00">
        <walk edges="48797770 48736644 250295383#6 -492965073#7 -492965073#6 48778464#0 48778464#1 48778464#2 48778464#3 48778443#0 48778443#1 48778443#2 48778474#0 48778474#1"/>
    </person>
    <person id="ped129" depart="645.00">
        <walk edges="-40345930 -222609004#0 -222609004#1 -1158942155 -40330575#0 -40330575#1 -40330575#2 -40330575#3"/>
    </person>
    <person id="ped130" depart="650.00">
        <walk edges="-43546105#1 43546105#2 -43546105#3 43544179#6 43544179#4 43546039#3 -43545645#0 354252043 43546064#2"/>
    </person>
    <person id="ped131" depart="655.00">
        <walk edges="647347140#1 E17 E15 -33909936#4 -33909936#3 48778508#5 48778508#4 -945794108"/>
    </person>
    <person id="ped132" depart="660.00">
        <walk edges="40299264#0 40299241#2 40299241#1 -40299241#0 -176279225#2 -176279225#1 -176279225#0 E37 75628811#1 -48736612#0"/>
    </person>
    <person id="ped133" depart="665.00">
        <walk edges="-1250915720#1 1250915721#2 1250915721#1 1250915721#0 -1250915720#5 -1250915720#6 353939570#9 -40330575#4 -48778495#1 -48778495#0"/>
    </person>
    <person id="ped134" depart="670.00">
        <walk edges="48778496 -48778495#1 -40330575#3 -40330575#2 -40330575#1 -40330575#0 222605085#0 48778494#0 -48797774 -1136117604 354259933#2"/>
    </person>
    <person id="ped135" depart="675.00">
        <walk edges="250295382 43546343#1 43546343#2 -492965073#9 -48736613#4 -48797768 -250295383#5 -250295383#4 -250295383#3 -250295513 250295513"/>
    </person>
    <person id="ped136" depart="680.00">
        <walk edges="222605084#4 -222605084#4 -1001108554 1001108554 -222605084#5"/>
    </person>
    <person id="ped137" depart="685.00">
        <walk edges="43547579#4 43546379 -48736639#1 -48736640#0 -250295383#1 48736641 48797769 -48797769"/>
    </person>
    <person id="ped138" depart="690.00">
        <walk edges="48778524#2 48778524#1 48778524#0 -43544001#10 43544138#8 43544138#7 43544138#6 43544138#5 -43544138#4 -43544138#3 -43546088"/>
    </person>
    <person id="ped139" depart="695.00">
        <walk edges="48778478#0 -48778478#0 -945793485#1 -945793485#0 273836978#1 40266621 40266909#0 40266909#1 40266908#1 647770574 48778454#0 48797771#0 48797771#2 -48778446#0"/>
    </person>
    <person id="ped140" depart="700.00">
        <walk edges="-48736666#1 48736666#2"/>
    </person>
    <person id="ped141" depart="705.00">
        <walk edges="43547017#3 43547017#4 43547017#5 -43544179#11 43544184#0 43544184#1 -647262856"/>
    </person>
    <person id="ped142" depart="710.00">
        <walk edges="647762524 48797765#1 -48797765#0 43546648#5 48778475#0 48778475#1 48778475#2 -48778476"/>
    </person>
    <person id="ped143" depart="715.00">
        <walk edges="-143207979#7 143207979#8 43547017#3 43547017#4 43547017#5 1232511776#0 1232511776#1 -43544184#4 43573573#4 48778518"/>
    </person>
    <person id="ped144" depart="720.00">
        <walk edges="43546088 43544138#2"/>
    </person>
    <person id="ped145" depart="725.00">
        <walk edges="-176279225#2 -176279225#3 -E24 48736633 48736620#6 -48736620#5 -48736620#3 -48736620#2 143207982#0 143207982#1 143207982#2 40314583#7 40314583#6"/>
    </person>
    <person id="ped146" depart="730.00">
        <walk edges="-43546343#2 -492965073#9 -48736613#4 -48797768 -48736644"/>
    </person>
    <person id="ped147" depart="735.00">
        <walk edges="-1136301812#0 48778464#3 48778464#2 48778464#1 48778456#0 48778456#1 48797771#2 -48797771#2"/>
    </person>
    <person id="ped148" depart="740.00">
        <walk edges="E6 40266908#1 647770574"/>
    </person>
    <person id="ped149" depart="745.00">
        <walk edges="-40236153#0 40266620 -40236220#1 40236228#0 40236228#1 354252039#0 354252039#1 40266619"/>
    </person>
    <person id="ped150" depart="750.00">
        <walk edges="1250915722#0 1250915720#3 1250915720#2 1250915720#1 -1250915720#0 -222605087#2 -222605087#1 -222605087#0 -353939570#7 40330557#0 -40345956#3 -40345956#2 -40345956#1 40330592"/>
    </person>
    <person id="ped151" depart="755.00">
        <walk edges="-40345956#0 40330592"/>
    </person>
    <person id="ped152" depart="760.00">
        <walk edges="-40334244#2 -40334244#1 -40334245#0 -40334245#1 40334245#2 -353939570#0 -48736666#0 -48736650#0 -48736650#1 -48736650#2 176279225#2 176279225#3 -E24 48778480#7 898519021 -273835688 40236093 40266907#0 40266907#1 48778492 -48778492"/>
    </person>
    <person id="ped153" depart="765.00">
        <walk edges="-647226815#0 -647226815#1 43544197#2 43544197#1 43544197#0 -43544001#9 -48778524#0 -48778524#1 -48778524#2 -48778524#3 -647998063#1"/>
    </person>
    <person id="ped154" depart="770.00">
        <walk edges="-48778522 -43544184#0 -43544179#10 43544138#0 43544138#1 -43544138#2 43546088 43544197#6 -143207979#5"/>
    </person>
    <person id="ped155" depart="775.00">