<?xml version="1.0" encoding="UTF-8"?>

<!-- generated on 2025-06-15 22:57:56 by Eclipse SUMO duarouter Version 1.22.0
<duarouterConfiguration xmlns:xsi="http://www.w3.org/2001/XMLSchema-instance" xsi:noNamespaceSchemaLocation="http://sumo.dlr.de/xsd/duarouterConfiguration.xsd">

    <input>
        <net-file value="osm.net.xml"/>
        <additional-files value="vtypes.xml"/>
        <route-files value="trips.truck.xml"/>
    </input>

    <output>
        <output-file value="truck.rou.xml"/>
    </output>

    <report>
        <ignore-errors value="true"/>
    </report>

</duarouterConfiguration>
-->

<routes xmlns:xsi="http://www.w3.org/2001/XMLSchema-instance" xsi:noNamespaceSchemaLocation="http://sumo.dlr.de/xsd/routes_file.xsd">
    <vType id="truck" length="12.00" maxSpeed="13.90" vClass="truck" accel="1.0" decel="4.5"/>
    <vehicle id="truck40" type="truck" depart="27.00">
        <route edges="223942064#0 E7 -878079387#0 -48798094#1 -48798094#0 -33910068#0 E32 354250407#1 -25379984#2 -33913538#9 -33913538#8 -33913538#7 -33913538#6 -33913538#5 -33913538#4 -33913538#3 -33913538#2 -33913538#1 -33913538#0"/>
    </vehicle>
    <vehicle id="truck37" type="truck" depart="65.00">
        <route edges="33913538#0 33913538#1 33913538#2 33913538#3 33913538#4 33913538#5 33913538#6 33913538#7 33913538#8 33913538#9 33909840#0 E42 353939570#1 353939570#2 353939570#3 353939570#5 353939570#6 353939570#7 353939570#8 353939570#9 353939570#10 33909936#0 33909936#1 33909936#2 33909936#3 33909936#4 33909936#5 E14 48778431#1 48778431#2 48778431#3 48778431#4 48778431#5 48778431#6 48778431#7 48778431#10"/>
    </vehicle>
    <vehicle id="truck11" type="truck" depart="164.00">
        <route edges="401741890 -92198451#2 -92198451#1 -92198451#0 -92198451#0.58 -E11 -E11.41 -251916699#1 -251916699#0 -223942064#2 -223942064#1 -223942064#0 -223942064#0.371"/>
    </vehicle>
    <vehicle id="truck4" type="truck" depart="358.00">
        <route edges="223942064#0 223942064#0.267 223942064#1 223942064#2 251916699#0 251916699#1 251916699#2 251916699#2.34 -E12 -E12.34 92198451#1 92198451#2 647606778"/>
    </vehicle>
    <vehicle id="truck39" type="truck" depart="367.00">
        <route edges="33913538#0 33913538#1 33913538#2 33913538#3 33913538#4 33913538#5 33913538#6 33913538#7 33913538#8 33913538#9 25379984#0 E35 E41 -33913538#9 -33913538#8 -33913538#7 -33913538#6 -33913538#5 -33913538#4 -33913538#3 -33913538#2 -33913538#1 -33913538#0"/>
    </vehicle>
    <vehicle id="truck13" type="truck" depart="420.00">
        <route edges="401741890 -92198451#2 -92198451#1 -92198451#0 -92198451#0.58 -E11 -E11.41 -251916699#1 -251916699#0 -223942064#2 -223942064#1 -223942064#0 E7 -878079387#0 -48798094#1 -48798094#0 -33910068#0 E32 354250407#1 E35 E42 353939570#1 353939570#2 353939570#3 353939570#5 353939570#6 353939570#7 353939570#8 353939570#9 353939570#10 33909936#0 33909936#1 33909936#2 33909936#3 33909936#4 33909936#5 E14 48778431#1 48778431#2 48778431#3 48778431#4 48778431#5 48778431#6 48778431#7 48778431#10"/>
    </vehicle>
    <vehicle id="truck38" type="truck" depart="451.00">
        <route edges="33913538#0 33913538#1 33913538#2 33913538#3 33913538#4 33913538#5 33913538#6 33913538#7 33913538#8 33913538#9 25379984#0 E35 E41 -33913538#9 -33913538#8 -33913538#7 -33913538#6 -33913538#5 -33913538#4 -33913538#3 -33913538#2 -33913538#1 -33913538#0"/>
    </vehicle>
    <vehicle id="truck14" type="truck" depart="550.00">
        <route edges="223942064#0 E7 -878079387#0 -48798094#1 -48798094#0 -33910068#0 E32 354250407#1 E35 E42 353939570#1 353939570#2 353939570#3 353939570#5 353939570#6 353939570#7 353939570#8 353939570#9 353939570#10 33909936#0 33909936#1 33909936#2 33909936#3 33909936#4 33909936#5 E14 48778431#1 48778431#2 48778431#3 48778431#4 48778431#5 48778431#6 48778431#7 48778431#10"/>
    </vehicle>
    <vehicle id="truck41" type="truck" depart="561.00">
        <route edges="401741890 -92198451#2 -92198451#1 -92198451#0 -92198451#0.58 -E11 -E11.41 -251916699#1 -251916699#0 -223942064#2 -223942064#1 -223942064#0 E7 -878079387#0 -48798094#1 -48798094#0 -33910068#0 E32 354250407#1 -25379984#2 -33913538#9 -33913538#8 -33913538#7 -33913538#6 -33913538#5 -33913538#4 -33913538#3 -33913538#2 -33913538#1 -33913538#0"/>
    </vehicle>
    <vehicle id="truck33" type="truck" depart="562.00">
        <route edges="223942064#0 E7 -878079387#0 -48798094#1 -48798094#0 -33910068#0 E32 354250407#1 E35 E42 353939570#1 353939570#2 353939570#3 353939570#5 353939570#6 353939570#7 353939570#8 353939570#9 353939570#10 33909936#0 33909936#1 33909936#2 33909936#3 33909936#4 33909936#5 E14 48778431#1 48778431#2 48778431#3 48778431#4 48778431#5 48778431#6 48778431#7 48778431#10"/>
    </vehicle>
    <vehicle id="truck32" type="truck" depart="604.00">
        <route edges="223942064#0 E7 878079387#1 223942063#1 492965072#1 33910094#1 160010389#0 160010389#1 160010389#2"/>
    </vehicle>
    <vehicle id="truck29" type="truck" depart="615.00">
        <route edges="33913538#0 33913538#1 33913538#2 33913538#3 33913538#4 33913538#5 33913538#6 33913538#7 33913538#8 33913538#9 25379984#0 E35 E41 -33913538#9 -33913538#8 -33913538#7 -33913538#6 -33913538#5 -33913538#4 -33913538#3 -33913538#2 -33913538#1 -33913538#0"/>
    </vehicle>
    <vehicle id="truck6" type="truck" depart="704.00">
        <route edges="223942064#0 E7 -878079387#0 -48798094#1 -48798094#0 -33910068#0 E32 354250407#1 E35 E42 353939570#1 353939570#2 353939570#3 353939570#5 353939570#6 353939570#7 353939570#8 353939570#9 353939570#10 33909936#0 33909936#1 33909936#2 33909936#3 33909936#4 33909936#5 E14 48778431#1 48778431#2 48778431#3 48778431#4 48778431#5 48778431#6 48778431#7 48778431#10"/>
    </vehicle>
    <vehicle id="truck26" type="truck" depart="783.00">
        <route edges="33913538#0 33913538#1 33913538#2 33913538#3 33913538#4 33913538#5 33913538#6 33913538#7 33913538#8 33913538#9 33909840#0 E42 353939570#1 353939570#2 353939570#3 353939570#5 353939570#6 353939570#7 353939570#8 353939570#9 353939570#10 33909936#0 33909936#1 33909936#2 33909936#3 33909936#4 33909936#5 E14 48778431#1 48778431#2 48778431#3 48778431#4 48778431#5 48778431#6 48778431#7 48778431#10"/>
    </vehicle>
    <vehicle id="truck21" type="truck" depart="800.00">
        <route edges="33913538#0 33913538#1 33913538#2 33913538#3 33913538#4 33913538#5 33913538#6 33913538#7 33913538#8 33913538#9 33909840#0 E42 353939570#1 353939570#2 353939570#3 353939570#5 353939570#6 353939570#7 353939570#8 353939570#9 353939570#10 33909936#0 33909936#1 33909936#2 33909936#3 33909936#4 33909936#5 E14 48778431#1 48778431#2 48778431#3 48778431#4 48778431#5 48778431#6 48778431#7 48778431#10"/>
    </vehicle>
    <vehicle id="truck35" type="truck" depart="800.00">
        <route edges="-160010389#2 -160010389#1 -160010389#0 -33910094#1 -33910094#0 -492965072#0 -223942063#0 -878079387#0 -48798094#1 -48798094#0 -33910068#0 E32 354250407#1 -25379984#2 -33913538#9 -33913538#8 -33913538#7 -33913538#6 -33913538#5 -33913538#4 -33913538#3 -33913538#2 -33913538#1 -33913538#0"/>
    </vehicle>
    <vehicle id="truck18" type="truck" depart="840.00">
        <route edges="401741890 -92198451#2 -92198451#1 -92198451#0 -92198451#0.58 -E11 -E11.41 -251916699#1 -251916699#0 -223942064#2 -223942064#1 -223942064#0 E7 -878079387#0 -48798094#1 -48798094#0 -33910068#0 E32 354250407#1 -25379984#2 -33913538#9 -33913538#8 -33913538#7 -33913538#6 -33913538#5 -33913538#4 -33913538#3 -33913538#2 -33913538#1 -33913538#0"/>
    </vehicle>
    <vehicle id="truck17" type="truck" depart="909.00">
        <route edges="-160010389#2 -160010389#1 -160010389#0 -33910094#1 -33910094#0 -492965072#0 -223942063#0 E8 -223942064#0.371"/>
    </vehicle>
    <vehicle id="truck43" type="truck" depart="989.00">
        <route edges="-160010389#2 -160010389#1 -160010389#0 -33910094#1 -33910094#0 -492965072#0 -223942063#0 E8 -223942064#0.371"/>
    </vehicle>
    <vehicle id="truck10" type="truck" depart="1009.00">
        <route edges="-160010389#2 -160010389#1 -160010389#0 -33910094#1 -33910094#0 -492965072#0 -223942063#0 -878079387#0 -48798094#1 -48798094#0 -33910068#0 E32 354250407#1 -25379984#2 -33913538#9 -33913538#8 -33913538#7 -33913538#6 -33913538#5 -33913538#4 -33913538#3 -33913538#2 -33913538#1 -33913538#0"/>
    </vehicle>
    <vehicle id="truck19" type="truck" depart="1065.00">
        <route edges="401741890 -92198451#2 -92198451#1 -92198451#0 -92198451#0.58 -E11 -E11.41 -251916699#1 -251916699#0 -223942064#2 -223942064#1 -223942064#0 E7 -878079387#0 -48798094#1 -48798094#0 -33910068#0 E32 354250407#1 E35 E42 353939570#1 353939570#2 353939570#3 353939570#5 353939570#6 353939570#7 353939570#8 353939570#9 353939570#10 33909936#0 33909936#1 33909936#2 33909936#3 33909936#4 33909936#5 E14 48778431#1 48778431#2 48778431#3 48778431#4 48778431#5 48778431#6 48778431#7 48778431#10"/>
    </vehicle>
    <vehicle id="truck23" type="truck" depart="1199.00">
        <route edges="33913538#0 33913538#1 33913538#2 33913538#3 33913538#4 33913538#5 33913538#6 33913538#7 33913538#8 33913538#9 33909840#0 E42 353939570#1 353939570#2 353939570#3 353939570#5 353939570#6 353939570#7 353939570#8 353939570#9 353939570#10 33909936#0 33909936#1 33909936#2 33909936#3 33909936#4 33909936#5 E14 48778431#1 48778431#2 48778431#3 48778431#4 48778431#5 48778431#6 48778431#7 48778431#10"/>
    </vehicle>
</routes>
