<?xml version="1.0" encoding="UTF-8"?>

<!-- generated on 2025-05-10 21:15:49.280515 by randomTrips.py v1_22_0+0002-63e50f52594
<configuration>
    <net-file value="E:/licenta/oras-mic/2025-05-08-13-35-40\osm.net.xml"/>
    <output-trip-file value="E:/licenta/oras-mic/2025-05-08-13-35-40\trips.trips.xml"/>
    <route-file value="E:/licenta/oras-mic/2025-05-08-13-35-40\generated_routes\routes_worker5_d66da9da.rou.xml"/>
    <prefix value="veh"/>
    <trip-attributes value="departLane=&quot;best&quot; departSpeed=&quot;max&quot; departPos=&quot;random&quot;"/>
    <fringe-factor value="1.9"/>
    <seed value="23718"/>
    <end value="600.0"/>
    <period value="1.9"/>
</configuration>
-->

<!-- generated on 2025-05-10 21:15:49 by Eclipse SUMO duarouter Version 1.22.0
<duarouterConfiguration xmlns:xsi="http://www.w3.org/2001/XMLSchema-instance" xsi:noNamespaceSchemaLocation="http://sumo.dlr.de/xsd/duarouterConfiguration.xsd">

    <input>
        <net-file value="E:/licenta/oras-mic/2025-05-08-13-35-40\osm.net.xml"/>
        <route-files value="E:/licenta/oras-mic/2025-05-08-13-35-40\trips.trips.xml"/>
    </input>

    <output>
        <output-file value="E:/licenta/oras-mic/2025-05-08-13-35-40\generated_routes\routes_worker5_d66da9da.rou.xml"/>
        <alternatives-output value="NUL"/>
    </output>

    <time>
        <begin value="0"/>
        <end value="600.0"/>
    </time>

    <report>
        <no-warnings value="true"/>
        <ignore-errors value="true"/>
        <no-step-log value="true"/>
    </report>

</duarouterConfiguration>
-->

<routes xmlns:xsi="http://www.w3.org/2001/XMLSchema-instance" xsi:noNamespaceSchemaLocation="http://sumo.dlr.de/xsd/routes_file.xsd">
    <vehicle id="veh0" depart="0.00" departLane="best" departPos="random" departSpeed="max">
        <route edges="-649036317#3 -223632520#1 -223632525#0"/>
    </vehicle>
    <vehicle id="veh1" depart="2.34" departLane="best" departPos="random" departSpeed="max">
        <route edges="223632522 -649040853#1"/>
    </vehicle>
    <vehicle id="veh2" depart="4.68" departLane="best" departPos="random" departSpeed="max">
        <route edges="-671642282 258728090#0 223632517 -E3 -223632520#2 -223632520#1"/>
    </vehicle>
    <vehicle id="veh3" depart="7.02" departLane="best" departPos="random" departSpeed="max">
        <route edges="-649064896#1 E4 258728090#4 -223632525#2 -223632525#0"/>
    </vehicle>
    <vehicle id="veh4" depart="9.36" departLane="best" departPos="random" departSpeed="max">
        <route edges="-223632520#2 E1 -258728090#4 -258728090#3 -649064896#1 E4"/>
    </vehicle>
    <vehicle id="veh5" depart="11.70" departLane="best" departPos="random" departSpeed="max">
        <route edges="223632517 -E3 -223632520#2 -223632520#1 -223632520#0"/>
    </vehicle>
    <vehicle id="veh6" depart="14.04" departLane="best" departPos="random" departSpeed="max">
        <route edges="-144943776 -649040853#1 -E3 -E2 -649064895 E4"/>
    </vehicle>
    <vehicle id="veh7" depart="16.38" departLane="best" departPos="random" departSpeed="max">
        <route edges="-223632526 -671642282 258728090#0 258728090#1 -649064896#1 E4"/>
    </vehicle>
    <vehicle id="veh8" depart="18.72" departLane="best" departPos="random" departSpeed="max">
        <route edges="-E2 -649064895 649064896#1 -258728090#2 223632517"/>
    </vehicle>
    <vehicle id="veh9" depart="21.06" departLane="best" departPos="random" departSpeed="max">
        <route edges="258728090#3 258728090#4 -223632525#2 -223632525#0"/>
    </vehicle>
    <vehicle id="veh10" depart="23.40" departLane="best" departPos="random" departSpeed="max">
        <route edges="223632520#2 E3 649040853#1 649040853#2"/>
    </vehicle>
    <vehicle id="veh11" depart="25.74" departLane="best" departPos="random" departSpeed="max">
        <route edges="258728090#0 223632517 -E3 -223632520#2 649036317#3"/>
    </vehicle>
    <vehicle id="veh12" depart="28.08" departLane="best" departPos="random" departSpeed="max">
        <route edges="223632522 -649040853#1 -E3 -E2"/>
    </vehicle>
    <vehicle id="veh13" depart="30.42" departLane="best" departPos="random" departSpeed="max">
        <route edges="-E2"/>
    </vehicle>
    <vehicle id="veh14" depart="32.76" departLane="best" departPos="random" departSpeed="max">
        <route edges="-258728090#4 -E4 649064895 E2 -223632520#2"/>
    </vehicle>
    <vehicle id="veh15" depart="35.10" departLane="best" departPos="random" departSpeed="max">
        <route edges="-223632526 -671642282 258728090#0 223632517 -E3 -223632520#2 -223632520#1 223632525#1"/>
    </vehicle>
    <vehicle id="veh16" depart="37.44" departLane="best" departPos="random" departSpeed="max">
        <route edges="-144943776 -223632522"/>
    </vehicle>
    <vehicle id="veh17" depart="39.78" departLane="best" departPos="random" departSpeed="max">
        <route edges="649064896#1 258728090#3 -E4 649064895 E2 -223632520#2"/>
    </vehicle>
    <vehicle id="veh19" depart="44.46" departLane="best" departPos="random" departSpeed="max">
        <route edges="-649064896#1 649064895 E2 E3 -223632517"/>
    </vehicle>
    <vehicle id="veh20" depart="46.80" departLane="best" departPos="random" departSpeed="max">
        <route edges="-649036317#3 E1"/>
    </vehicle>
    <vehicle id="veh22" depart="51.48" departLane="best" departPos="random" departSpeed="max">
        <route edges="258728090#0 258728090#1 -649064896#1 649064896#1"/>
    </vehicle>
    <vehicle id="veh23" depart="53.82" departLane="best" departPos="random" departSpeed="max">
        <route edges="-258728090#3 -649064896#1 649064895 E2 E3 649040853#1 -223632522"/>
    </vehicle>
    <vehicle id="veh24" depart="56.16" departLane="best" departPos="random" departSpeed="max">
        <route edges="-258728090#2 223632517 -E3 -E2 -649064895 E4 -258728090#3"/>
    </vehicle>
    <vehicle id="veh27" depart="63.18" departLane="best" departPos="random" departSpeed="max">
        <route edges="223632520#2 -E2 -649064895"/>
    </vehicle>
    <vehicle id="veh29" depart="67.86" departLane="best" departPos="random" departSpeed="max">
        <route edges="-223632526 -671642282 258728090#0 223632517 -E3 -223632520#2 E1"/>
    </vehicle>
    <vehicle id="veh30" depart="70.20" departLane="best" departPos="random" departSpeed="max">
        <route edges="-649064896#1 E4 258728090#4 -223632525#2 -223632525#0"/>
    </vehicle>
    <vehicle id="veh31" depart="72.54" departLane="best" departPos="random" departSpeed="max">
        <route edges="E2 -223632520#2 -223632520#1 -223632520#0"/>
    </vehicle>
    <vehicle id="veh32" depart="74.88" departLane="best" departPos="random" departSpeed="max">
        <route edges="-649036317#3 E1 -223632525#2"/>
    </vehicle>
    <vehicle id="veh33" depart="77.22" departLane="best" departPos="random" departSpeed="max">
        <route edges="258728090#1 -649064896#1 649064895 E2 E3"/>
    </vehicle>
    <vehicle id="veh34" depart="79.56" departLane="best" departPos="random" departSpeed="max">
        <route edges="-223632520#2 -223632520#1 223632525#1 -E1"/>
    </vehicle>
    <vehicle id="veh35" depart="81.90" departLane="best" departPos="random" departSpeed="max">
        <route edges="-223632526 -671642282 258728090#0 258728090#1 -649064896#1 649064895 E2"/>
    </vehicle>
    <vehicle id="veh36" depart="84.24" departLane="best" departPos="random" departSpeed="max">
        <route edges="223632517 -E3 -E2 -649064895 649064896#1 -258728090#2 -258728090#0 671642282 223632526"/>
    </vehicle>
    <vehicle id="veh37" depart="86.58" departLane="best" departPos="random" departSpeed="max">
        <route edges="-223632525#2 -223632520#0"/>
    </vehicle>
    <vehicle id="veh39" depart="91.26" departLane="best" departPos="random" departSpeed="max">
        <route edges="258728090#1 -649064896#1 649064896#1 -258728090#2"/>
    </vehicle>
    <vehicle id="veh40" depart="93.60" departLane="best" departPos="random" departSpeed="max">
        <route edges="-144943776 -649040853#1 -E3 -223632520#2"/>
    </vehicle>
    <vehicle id="veh41" depart="95.94" departLane="best" departPos="random" departSpeed="max">
        <route edges="-649040853#1 -E3 -223632520#2 -223632520#1 -223632525#0"/>
    </vehicle>
    <vehicle id="veh42" depart="98.28" departLane="best" departPos="random" departSpeed="max">
        <route edges="-258728090#3 -258728090#2 -258728090#0 671642282 223632526"/>
    </vehicle>
    <vehicle id="veh43" depart="100.62" departLane="best" departPos="random" departSpeed="max">
        <route edges="-E3 -E2 -649064895 649064895 E2 E3 649040853#1 -223632522"/>
    </vehicle>
    <vehicle id="veh44" depart="102.96" departLane="best" departPos="random" departSpeed="max">
        <route edges="223632522 -649040853#1 -E3 -E2 -649064895 649064895 E2 E3 649040853#1"/>
    </vehicle>
    <vehicle id="veh45" depart="105.30" departLane="best" departPos="random" departSpeed="max">
        <route edges="-258728090#3 -649064896#1 649064895 E2 -223632520#2 649036317#3"/>
    </vehicle>
    <vehicle id="veh47" depart="109.98" departLane="best" departPos="random" departSpeed="max">
        <route edges="-258728090#3 -649064896#1 E4 258728090#4 -223632525#2 -223632525#0"/>
    </vehicle>
    <vehicle id="veh48" depart="112.32" departLane="best" departPos="random" departSpeed="max">
        <route edges="E1 -223632525#2 -223632525#0"/>
    </vehicle>
    <vehicle id="veh49" depart="114.66" departLane="best" departPos="random" departSpeed="max">
        <route edges="-223632520#1 223632525#1 -258728090#4 -258728090#3 -258728090#2 -258728090#0 671642282"/>
    </vehicle>
    <vehicle id="veh50" depart="117.00" departLane="best" departPos="random" departSpeed="max">
        <route edges="-E1 223632520#2 -E2 -649064895 E4"/>
    </vehicle>
    <vehicle id="veh51" depart="119.34" departLane="best" departPos="random" departSpeed="max">
        <route edges="649064896#1"/>
    </vehicle>
    <vehicle id="veh52" depart="121.68" departLane="best" departPos="random" departSpeed="max">
        <route edges="223632522 -649040853#1 -E3 -E2 -649064895 649064895 E2 E3 649040853#1"/>
    </vehicle>
    <vehicle id="veh53" depart="124.02" departLane="best" departPos="random" departSpeed="max">
        <route edges="-649040853#1 -E3 -E2 -649064895 649064895 E2"/>
    </vehicle>
    <vehicle id="veh54" depart="126.36" departLane="best" departPos="random" departSpeed="max">
        <route edges="223632520#2 E3 -223632517 258728090#1"/>
    </vehicle>
    <vehicle id="veh56" depart="131.04" departLane="best" departPos="random" departSpeed="max">
        <route edges="-223632526 -671642282 258728090#0 258728090#1 258728090#3 -E4"/>
    </vehicle>
    <vehicle id="veh57" depart="133.38" departLane="best" departPos="random" departSpeed="max">
        <route edges="E1 -223632525#2 223632520#1 649036317#3"/>
    </vehicle>
    <vehicle id="veh58" depart="135.72" departLane="best" departPos="random" departSpeed="max">
        <route edges="-671642282 258728090#0 223632517 649040853#1 649040853#2"/>
    </vehicle>
    <vehicle id="veh59" depart="138.06" departLane="best" departPos="random" departSpeed="max">
        <route edges="-223632526 -671642282 258728090#0 223632517 -E3 -223632520#2 -223632520#1 -223632520#0"/>
    </vehicle>
    <vehicle id="veh60" depart="140.40" departLane="best" departPos="random" departSpeed="max">
        <route edges="-223632525#2 223632520#1 223632520#2 -E2 -649064895 649064895 E2"/>
    </vehicle>
    <vehicle id="veh61" depart="142.74" departLane="best" departPos="random" departSpeed="max">
        <route edges="258728090#1 258728090#3 258728090#4 -E1 -223632520#1 223632525#1"/>
    </vehicle>
    <vehicle id="veh62" depart="145.08" departLane="best" departPos="random" departSpeed="max">
        <route edges="649064895 E2 E3 649040853#1"/>
    </vehicle>
    <vehicle id="veh64" depart="149.76" departLane="best" departPos="random" departSpeed="max">
        <route edges="223632525#1 -258728090#4 -258728090#3 -258728090#2 223632517 -E3"/>
    </vehicle>
    <vehicle id="veh65" depart="152.10" departLane="best" departPos="random" departSpeed="max">
        <route edges="-223632526 -671642282 258728090#0 258728090#1 258728090#3 258728090#4 -223632525#2"/>
    </vehicle>
    <vehicle id="veh66" depart="154.44" departLane="best" departPos="random" departSpeed="max">
        <route edges="223632525#0 223632525#1 -258728090#4 -E4 649064896#1 258728090#3"/>
    </vehicle>
    <vehicle id="veh69" depart="161.46" departLane="best" departPos="random" departSpeed="max">
        <route edges="258728090#3 -E4 649064895 E2 E3 -223632517 258728090#1"/>
    </vehicle>
    <vehicle id="veh71" depart="166.14" departLane="best" departPos="random" departSpeed="max">
        <route edges="223632525#1 -258728090#4 -258728090#3 -258728090#2"/>
    </vehicle>
    <vehicle id="veh72" depart="168.48" departLane="best" departPos="random" departSpeed="max">
        <route edges="-649036317#3 223632520#2 -E2"/>
    </vehicle>
    <vehicle id="veh73" depart="170.82" departLane="best" departPos="random" departSpeed="max">
        <route edges="223632522 -649040853#1 -E3 -223632520#2 -223632520#1 -223632525#0"/>
    </vehicle>
    <vehicle id="veh74" depart="173.16" departLane="best" departPos="random" departSpeed="max">
        <route edges="258728090#0 223632517"/>
    </vehicle>
    <vehicle id="veh76" depart="177.84" departLane="best" departPos="random" departSpeed="max">
        <route edges="-258728090#3 -649064896#1 649064895 E2 E3"/>
    </vehicle>
    <vehicle id="veh77" depart="180.18" departLane="best" departPos="random" departSpeed="max">
        <route edges="223632520#1 E1 -258728090#4 -258728090#3 -649064896#1"/>
    </vehicle>
    <vehicle id="veh79" depart="184.86" departLane="best" departPos="random" departSpeed="max">
        <route edges="-671642282 258728090#0"/>
    </vehicle>
    <vehicle id="veh80" depart="187.20" departLane="best" departPos="random" departSpeed="max">
        <route edges="223632522 -649040853#1 -E3 -E2 -649064895 E4 -258728090#3"/>
    </vehicle>
    <vehicle id="veh81" depart="189.54" departLane="best" departPos="random" departSpeed="max">
        <route edges="E3 649040853#1"/>
    </vehicle>
    <vehicle id="veh82" depart="191.88" departLane="best" departPos="random" departSpeed="max">
        <route edges="223632517 -E3 -E2 -649064895 E4 258728090#4 -223632525#2"/>
    </vehicle>
    <vehicle id="veh83" depart="194.22" departLane="best" departPos="random" departSpeed="max">
        <route edges="223632520#0 223632520#1 223632520#2 E3 -223632517 -258728090#0 671642282"/>
    </vehicle>
    <vehicle id="veh84" depart="196.56" departLane="best" departPos="random" departSpeed="max">
        <route edges="-E1 223632520#2 -E2 -649064895 649064895 E2"/>
    </vehicle>
    <vehicle id="veh85" depart="198.90" departLane="best" departPos="random" departSpeed="max">
        <route edges="258728090#1 -649064896#1 649064896#1"/>
    </vehicle>
    <vehicle id="veh86" depart="201.24" departLane="best" departPos="random" departSpeed="max">
        <route edges="-258728090#2"/>
    </vehicle>
    <vehicle id="veh87" depart="203.58" departLane="best" departPos="random" departSpeed="max">
        <route edges="-649064895 E4 258728090#4 -223632525#2 -223632525#0"/>
    </vehicle>
    <vehicle id="veh88" depart="205.92" departLane="best" departPos="random" departSpeed="max">
        <route edges="-258728090#4 -258728090#3"/>
    </vehicle>
    <vehicle id="veh90" depart="210.60" departLane="best" departPos="random" departSpeed="max">
        <route edges="223632520#0 223632525#1 -258728090#4 -258728090#3"/>
    </vehicle>
    <vehicle id="veh91" depart="212.94" departLane="best" departPos="random" departSpeed="max">
        <route edges="223632525#1 -258728090#4 -E4 649064895 E2"/>
    </vehicle>
    <vehicle id="veh92" depart="215.28" departLane="best" departPos="random" departSpeed="max">
        <route edges="-144943776 -649040853#1 -E3 -223632520#2 649036317#3"/>
    </vehicle>
    <vehicle id="veh93" depart="217.62" departLane="best" departPos="random" departSpeed="max">
        <route edges="-223632517 258728090#1 258728090#3 258728090#4 -E1"/>
    </vehicle>
    <vehicle id="veh94" depart="219.96" departLane="best" departPos="random" departSpeed="max">
        <route edges="223632520#0 223632520#1 223632520#2 E3 -223632517 -258728090#0 671642282 223632526"/>
    </vehicle>
    <vehicle id="veh95" depart="222.30" departLane="best" departPos="random" departSpeed="max">
        <route edges="258728090#3 -E4 649064896#1 -258728090#2 -258728090#0 671642282 223632526"/>
    </vehicle>
    <vehicle id="veh96" depart="224.64" departLane="best" departPos="random" departSpeed="max">
        <route edges="-E4 649064895 E2"/>
    </vehicle>
    <vehicle id="veh98" depart="229.32" departLane="best" departPos="random" departSpeed="max">
        <route edges="223632525#0 223632520#1 649036317#3"/>
    </vehicle>
    <vehicle id="veh100" depart="234.00" departLane="best" departPos="random" departSpeed="max">
        <route edges="-144943776 -649040853#1 -E3 -223632520#2 -223632520#1 -223632520#0"/>
    </vehicle>
    <vehicle id="veh101" depart="236.34" departLane="best" departPos="random" departSpeed="max">
        <route edges="223632522 -649040853#1 -E3 -E2 -649064895 E4 258728090#4 -223632525#2"/>
    </vehicle>
    <vehicle id="veh102" depart="238.68" departLane="best" departPos="random" departSpeed="max">
        <route edges="-E2 -649064895"/>
    </vehicle>
    <vehicle id="veh103" depart="241.02" departLane="best" departPos="random" departSpeed="max">
        <route edges="-258728090#3 -649064896#1 E4 258728090#4"/>
    </vehicle>
    <vehicle id="veh104" depart="243.36" departLane="best" departPos="random" departSpeed="max">
        <route edges="258728090#3 -E4 649064895 E2 E3"/>
    </vehicle>
    <vehicle id="veh105" depart="245.70" departLane="best" departPos="random" departSpeed="max">
        <route edges="-E2"/>
    </vehicle>
    <vehicle id="veh106" depart="248.04" departLane="best" departPos="random" departSpeed="max">
        <route edges="223632522 -649040853#1 -E3"/>
    </vehicle>
    <vehicle id="veh108" depart="252.72" departLane="best" departPos="random" departSpeed="max">
        <route edges="-223632520#1 223632525#1 -258728090#4 258728090#4"/>
    </vehicle>
    <vehicle id="veh109" depart="255.06" departLane="best" departPos="random" departSpeed="max">
        <route edges="258728090#0 223632517 -E3 -223632520#2 -223632520#1 -223632525#0"/>
    </vehicle>
    <vehicle id="veh110" depart="257.40" departLane="best" departPos="random" departSpeed="max">
        <route edges="-E3 -E2 -649064895 E4 258728090#4"/>
    </vehicle>
    <vehicle id="veh111" depart="259.74" departLane="best" departPos="random" departSpeed="max">
        <route edges="-E2 -649064895 649064895 E2 E3 649040853#1 649040853#2"/>
    </vehicle>
    <vehicle id="veh112" depart="262.08" departLane="best" departPos="random" departSpeed="max">
        <route edges="223632517 649040853#1 649040853#2"/>
    </vehicle>
    <vehicle id="veh113" depart="264.42" departLane="best" departPos="random" departSpeed="max">
        <route edges="-E4 649064895 E2"/>
    </vehicle>
    <vehicle id="veh115" depart="269.10" departLane="best" departPos="random" departSpeed="max">
        <route edges="-223632526 -671642282 258728090#0 258728090#1 258728090#3 258728090#4"/>
    </vehicle>
    <vehicle id="veh116" depart="271.44" departLane="best" departPos="random" departSpeed="max">
        <route edges="-E4 649064895 E2 -223632520#2 -223632520#1 -223632520#0"/>
    </vehicle>
    <vehicle id="veh117" depart="273.78" departLane="best" departPos="random" departSpeed="max">
        <route edges="-E3"/>
    </vehicle>
    <vehicle id="veh118" depart="276.12" departLane="best" departPos="random" departSpeed="max">
        <route edges="671642282"/>
    </vehicle>
    <vehicle id="veh119" depart="278.46" departLane="best" departPos="random" departSpeed="max">
        <route edges="-649064895 649064896#1 -258728090#2 223632517 -E3"/>
    </vehicle>
    <vehicle id="veh121" depart="283.14" departLane="best" departPos="random" departSpeed="max">
        <route edges="-258728090#4 -E4 649064895 E2 E3 649040853#1 649040853#2"/>
    </vehicle>
    <vehicle id="veh122" depart="285.48" departLane="best" departPos="random" departSpeed="max">
        <route edges="223632520#2 -E2 -649064895 649064896#1 258728090#3"/>
    </vehicle>
    <vehicle id="veh123" depart="287.82" departLane="best" departPos="random" departSpeed="max">
        <route edges="-144943776 -649040853#1 -E3 -E2 -649064895 E4"/>
    </vehicle>
    <vehicle id="veh124" depart="290.16" departLane="best" departPos="random" departSpeed="max">
        <route edges="-223632526 -671642282 258728090#0 258728090#1 -649064896#1 649064896#1 -258728090#2"/>
    </vehicle>
    <vehicle id="veh125" depart="292.50" departLane="best" departPos="random" departSpeed="max">
        <route edges="223632525#0 223632525#1 -258728090#4 -258728090#3"/>
    </vehicle>
    <vehicle id="veh126" depart="294.84" departLane="best" departPos="random" departSpeed="max">
        <route edges="-649064895 E4"/>
    </vehicle>
    <vehicle id="veh127" depart="297.18" departLane="best" departPos="random" departSpeed="max">
        <route edges="223632525#0 223632520#1 E1 -223632525#2 -223632525#0"/>
    </vehicle>
    <vehicle id="veh128" depart="299.52" departLane="best" departPos="random" departSpeed="max">
        <route edges="-E1 649036317#3"/>
    </vehicle>
    <vehicle id="veh129" depart="301.86" departLane="best" departPos="random" departSpeed="max">
        <route edges="E1 -258728090#4 -E4 649064895 E2 E3 649040853#1"/>
    </vehicle>
    <vehicle id="veh131" depart="306.54" departLane="best" departPos="random" departSpeed="max">
        <route edges="-649036317#3 E1 -258728090#4 -E4 649064895 E2"/>
    </vehicle>
    <vehicle id="veh132" depart="308.88" departLane="best" departPos="random" departSpeed="max">
        <route edges="E3 -223632517 258728090#1 258728090#3 258728090#4 -E1 223632520#2"/>
    </vehicle>
    <vehicle id="veh133" depart="311.22" departLane="best" departPos="random" departSpeed="max">
        <route edges="223632525#0 223632520#1 223632520#2 E3 649040853#1 -223632522"/>
    </vehicle>
    <vehicle id="veh134" depart="313.56" departLane="best" departPos="random" departSpeed="max">
        <route edges="-E1 223632520#2 -E2 -649064895 649064896#1"/>
    </vehicle>
    <vehicle id="veh135" depart="315.90" departLane="best" departPos="random" departSpeed="max">
        <route edges="223632520#0 223632520#1 223632520#2 E3 649040853#1 649040853#2"/>
    </vehicle>
    <vehicle id="veh136" depart="318.24" departLane="best" departPos="random" departSpeed="max">
        <route edges="-258728090#4 -258728090#3 -649064896#1"/>
    </vehicle>
    <vehicle id="veh137" depart="320.58" departLane="best" departPos="random" departSpeed="max">
        <route edges="-E1 223632520#2 E3 649040853#1"/>
    </vehicle>
    <vehicle id="veh138" depart="322.92" departLane="best" departPos="random" departSpeed="max">
        <route edges="649064895 -649064895 649064896#1 258728090#3 -E4"/>
    </vehicle>
    <vehicle id="veh139" depart="325.26" departLane="best" departPos="random" departSpeed="max">
        <route edges="-258728090#3 -649064896#1 649064895"/>
    </vehicle>
    <vehicle id="veh140" depart="327.60" departLane="best" departPos="random" departSpeed="max">
        <route edges="E2"/>
    </vehicle>
    <vehicle id="veh141" depart="329.94" departLane="best" departPos="random" departSpeed="max">
        <route edges="223632520#0 223632520#1 E1 -223632525#2 -223632520#0"/>
    </vehicle>
    <vehicle id="veh142" depart="332.28" departLane="best" departPos="random" departSpeed="max">
        <route edges="649040853#1"/>
    </vehicle>
    <vehicle id="veh143" depart="334.62" departLane="best" departPos="random" departSpeed="max">
        <route edges="-649036317#3 E1 -258728090#4 258728090#4"/>
    </vehicle>
    <vehicle id="veh144" depart="336.96" departLane="best" departPos="random" departSpeed="max">
        <route edges="-E3 -E2 -649064895 649064896#1 -258728090#2 -258728090#0 671642282 223632526"/>
    </vehicle>
    <vehicle id="veh146" depart="341.64" departLane="best" departPos="random" departSpeed="max">
        <route edges="-223632525#2 -223632520#0"/>
    </vehicle>
    <vehicle id="veh147" depart="343.98" departLane="best" departPos="random" departSpeed="max">
        <route edges="223632520#1"/>
    </vehicle>
    <vehicle id="veh148" depart="346.32" departLane="best" departPos="random" departSpeed="max">
        <route edges="-223632520#2 E1 -258728090#4 -258728090#3 -649064896#1 E4"/>
    </vehicle>
    <vehicle id="veh149" depart="348.66" departLane="best" departPos="random" departSpeed="max">
        <route edges="E3 -223632517 258728090#1 258728090#3 258728090#4 -E1 649036317#3"/>
    </vehicle>
    <vehicle id="veh150" depart="351.00" departLane="best" departPos="random" departSpeed="max">
        <route edges="-258728090#4 -E4"/>
    </vehicle>
    <vehicle id="veh151" depart="353.34" departLane="best" departPos="random" departSpeed="max">
        <route edges="223632522 -649040853#1 -E3 -E2 -649064895 649064895 E2 E3"/>
    </vehicle>
    <vehicle id="veh153" depart="358.02" departLane="best" departPos="random" departSpeed="max">
        <route edges="649064895 E2 -223632520#2 649036317#3"/>
    </vehicle>
    <vehicle id="veh154" depart="360.36" departLane="best" departPos="random" departSpeed="max">
        <route edges="223632520#0 223632525#1 -258728090#4 -E4 649064895"/>
    </vehicle>
    <vehicle id="veh155" depart="362.70" departLane="best" departPos="random" departSpeed="max">
        <route edges="649064895 E2 E3 649040853#1"/>
    </vehicle>
    <vehicle id="veh156" depart="365.04" departLane="best" departPos="random" departSpeed="max">
        <route edges="-223632525#2 223632520#1 223632520#2 E3 -223632517"/>
    </vehicle>
    <vehicle id="veh157" depart="367.38" departLane="best" departPos="random" departSpeed="max">
        <route edges="258728090#0 258728090#1 258728090#3 258728090#4 -E1"/>
    </vehicle>
    <vehicle id="veh158" depart="369.72" departLane="best" departPos="random" departSpeed="max">
        <route edges="-223632526 -671642282 258728090#0 258728090#1 -649064896#1 E4"/>
    </vehicle>
    <vehicle id="veh159" depart="372.06" departLane="best" departPos="random" departSpeed="max">
        <route edges="-649064896#1 649064895 E2 E3 649040853#1 649040853#2"/>
    </vehicle>
    <vehicle id="veh160" depart="374.40" departLane="best" departPos="random" departSpeed="max">
        <route edges="E1 -223632525#2 223632520#1 649036317#3"/>
    </vehicle>
    <vehicle id="veh161" depart="376.74" departLane="best" departPos="random" departSpeed="max">
        <route edges="-E4 649064896#1 258728090#3"/>
    </vehicle>
    <vehicle id="veh162" depart="379.08" departLane="best" departPos="random" departSpeed="max">
        <route edges="-649036317#3 -223632520#1"/>
    </vehicle>
    <vehicle id="veh163" depart="381.42" departLane="best" departPos="random" departSpeed="max">
        <route edges="-649036317#3 E1 -258728090#4 -258728090#3 -258728090#2 223632517 -E3"/>
    </vehicle>
    <vehicle id="veh165" depart="386.10" departLane="best" departPos="random" departSpeed="max">
        <route edges="223632520#2 E3 -223632517 258728090#1"/>
    </vehicle>
    <vehicle id="veh166" depart="388.44" departLane="best" departPos="random" departSpeed="max">
        <route edges="-649036317#3 -223632520#1 -223632520#0"/>
    </vehicle>
    <vehicle id="veh167" depart="390.78" departLane="best" departPos="random" departSpeed="max">
        <route edges="223632520#0 223632520#1 223632520#2 E3 -223632517 258728090#1"/>
    </vehicle>
    <vehicle id="veh168" depart="393.12" departLane="best" departPos="random" departSpeed="max">
        <route edges="-258728090#4 -E4 649064895 E2"/>
    </vehicle>
    <vehicle id="veh169" depart="395.46" departLane="best" departPos="random" departSpeed="max">
        <route edges="-E3"/>
    </vehicle>
    <vehicle id="veh170" depart="397.80" departLane="best" departPos="random" departSpeed="max">
        <route edges="E4 258728090#4 -E1 223632520#2 E3 -223632517 258728090#1"/>
    </vehicle>
    <vehicle id="veh172" depart="402.48" departLane="best" departPos="random" departSpeed="max">
        <route edges="-223632520#1 223632525#1 -258728090#4 -258728090#3 -258728090#2 -258728090#0 671642282 223632526"/>
    </vehicle>
    <vehicle id="veh173" depart="404.82" departLane="best" departPos="random" departSpeed="max">
        <route edges="-E4 649064896#1 258728090#3 258728090#4"/>
    </vehicle>
    <vehicle id="veh174" depart="407.16" departLane="best" departPos="random" departSpeed="max">
        <route edges="-E1 -223632520#1 223632525#1 -258728090#4 -258728090#3"/>
    </vehicle>
    <vehicle id="veh177" depart="414.18" departLane="best" departPos="random" departSpeed="max">
        <route edges="-649036317#3 223632520#2 -E2 -649064895 E4"/>
    </vehicle>
    <vehicle id="veh178" depart="416.52" departLane="best" departPos="random" departSpeed="max">
        <route edges="-649040853#1 -223632517 -258728090#0"/>
    </vehicle>
    <vehicle id="veh179" depart="418.86" departLane="best" departPos="random" departSpeed="max">
        <route edges="223632525#1 -258728090#4 -258728090#3 -258728090#2 -258728090#0 671642282"/>
    </vehicle>
    <vehicle id="veh180" depart="421.20" departLane="best" departPos="random" departSpeed="max">
        <route edges="223632517 -E3 -E2 -649064895 E4 258728090#4 -223632525#2 223632520#1"/>
    </vehicle>
    <vehicle id="veh181" depart="423.54" departLane="best" departPos="random" departSpeed="max">