<?xml version="1.0" encoding="UTF-8"?>

<!-- generated on 2025-05-11 06:44:44.796215 by randomTrips.py v1_22_0+0002-63e50f52594
<configuration>
    <net-file value="E:/licenta/oras-mic/2025-05-08-13-35-40\osm.net.xml"/>
    <output-trip-file value="E:/licenta/oras-mic/2025-05-08-13-35-40\trips.trips.xml"/>
    <route-file value="E:/licenta/oras-mic/2025-05-08-13-35-40\generated_routes\routes_worker3_437f4d09.rou.xml"/>
    <prefix value="veh"/>
    <trip-attributes value="departLane=&quot;best&quot; departSpeed=&quot;max&quot; departPos=&quot;random&quot;"/>
    <fringe-factor value="3.3"/>
    <seed value="32495"/>
    <end value="600.0"/>
    <period value="1.89"/>
</configuration>
-->

<!-- generated on 2025-05-11 06:44:44 by Eclipse SUMO duarouter Version 1.22.0
<duarouterConfiguration xmlns:xsi="http://www.w3.org/2001/XMLSchema-instance" xsi:noNamespaceSchemaLocation="http://sumo.dlr.de/xsd/duarouterConfiguration.xsd">

    <input>
        <net-file value="E:/licenta/oras-mic/2025-05-08-13-35-40\osm.net.xml"/>
        <route-files value="E:/licenta/oras-mic/2025-05-08-13-35-40\trips.trips.xml"/>
    </input>

    <output>
        <output-file value="E:/licenta/oras-mic/2025-05-08-13-35-40\generated_routes\routes_worker3_437f4d09.rou.xml"/>
        <alternatives-output value="NUL"/>
    </output>

    <time>
        <begin value="0"/>
        <end value="600.0"/>
    </time>

    <report>
        <no-warnings value="true"/>
        <ignore-errors value="true"/>
        <no-step-log value="true"/>
    </report>

</duarouterConfiguration>
-->

<routes xmlns:xsi="http://www.w3.org/2001/XMLSchema-instance" xsi:noNamespaceSchemaLocation="http://sumo.dlr.de/xsd/routes_file.xsd">
    <vehicle id="veh1" depart="2.08" departLane="best" departPos="random" departSpeed="max">
        <route edges="-649040853#1 -E3 -E2 -649064895 E4 258728090#4 -E1 223632520#2"/>
    </vehicle>
    <vehicle id="veh2" depart="4.16" departLane="best" departPos="random" departSpeed="max">
        <route edges="223632525#0 223632520#1 223632520#2 E3 -223632517"/>
    </vehicle>
    <vehicle id="veh4" depart="8.32" departLane="best" departPos="random" departSpeed="max">
        <route edges="-649040853#1 -E3 -E2 -649064895 649064896#1 258728090#3"/>
    </vehicle>
    <vehicle id="veh5" depart="10.40" departLane="best" departPos="random" departSpeed="max">
        <route edges="-223632517 258728090#1 258728090#3 258728090#4 -223632525#2 -223632525#0"/>
    </vehicle>
    <vehicle id="veh6" depart="12.48" departLane="best" departPos="random" departSpeed="max">
        <route edges="223632517 -E3 -E2"/>
    </vehicle>
    <vehicle id="veh7" depart="14.56" departLane="best" departPos="random" departSpeed="max">
        <route edges="-223632526 -671642282 258728090#0 258728090#1 -649064896#1 649064896#1 -258728090#2 -258728090#0 671642282 223632526"/>
    </vehicle>
    <vehicle id="veh8" depart="16.64" departLane="best" departPos="random" departSpeed="max">
        <route edges="-258728090#4 258728090#4 -223632525#2 -223632520#0"/>
    </vehicle>
    <vehicle id="veh9" depart="18.72" departLane="best" departPos="random" departSpeed="max">
        <route edges="-649036317#3 E1 -258728090#4 -E4"/>
    </vehicle>
    <vehicle id="veh10" depart="20.80" departLane="best" departPos="random" departSpeed="max">
        <route edges="223632520#0 223632520#1 223632520#2 E3"/>
    </vehicle>
    <vehicle id="veh11" depart="22.88" departLane="best" departPos="random" departSpeed="max">
        <route edges="-144943776 -649040853#1 -E3 -E2 -649064895 E4 258728090#4 -E1"/>
    </vehicle>
    <vehicle id="veh12" depart="24.96" departLane="best" departPos="random" departSpeed="max">
        <route edges="-258728090#4 -258728090#3 -258728090#2"/>
    </vehicle>
    <vehicle id="veh13" depart="27.04" departLane="best" departPos="random" departSpeed="max">
        <route edges="-649064896#1 649064896#1 -258728090#2 -258728090#0 671642282"/>
    </vehicle>
    <vehicle id="veh14" depart="29.12" departLane="best" departPos="random" departSpeed="max">
        <route edges="-223632520#2 649036317#3"/>
    </vehicle>
    <vehicle id="veh15" depart="31.20" departLane="best" departPos="random" departSpeed="max">
        <route edges="223632520#0 -223632525#0"/>
    </vehicle>
    <vehicle id="veh16" depart="33.28" departLane="best" departPos="random" departSpeed="max">
        <route edges="-649064895 E4 258728090#4 -223632525#2 -223632525#0"/>
    </vehicle>
    <vehicle id="veh17" depart="35.36" departLane="best" departPos="random" departSpeed="max">
        <route edges="-144943776 -649040853#1 -E3 -E2 -649064895 649064895 E2 E3"/>
    </vehicle>
    <vehicle id="veh18" depart="37.44" departLane="best" departPos="random" departSpeed="max">
        <route edges="-258728090#2 223632517 -E3 -223632520#2 -223632520#1 -223632525#0"/>
    </vehicle>
    <vehicle id="veh19" depart="39.52" departLane="best" departPos="random" departSpeed="max">
        <route edges="223632522 -649040853#1 -E3 -E2 -649064895 E4 258728090#4"/>
    </vehicle>
    <vehicle id="veh20" depart="41.60" departLane="best" departPos="random" departSpeed="max">
        <route edges="223632520#0 223632525#1 -258728090#4 258728090#4"/>
    </vehicle>
    <vehicle id="veh23" depart="47.84" departLane="best" departPos="random" departSpeed="max">
        <route edges="-649040853#1 -E3 -223632520#2 -223632520#1 -223632520#0"/>
    </vehicle>
    <vehicle id="veh24" depart="49.92" departLane="best" departPos="random" departSpeed="max">
        <route edges="-649064895 649064896#1 -258728090#2 -258728090#0 671642282 223632526"/>
    </vehicle>
    <vehicle id="veh25" depart="52.00" departLane="best" departPos="random" departSpeed="max">
        <route edges="649064896#1 258728090#3 258728090#4 -E1 649036317#3"/>
    </vehicle>
    <vehicle id="veh26" depart="54.08" departLane="best" departPos="random" departSpeed="max">
        <route edges="-144943776 -649040853#1 -223632517 -258728090#0"/>
    </vehicle>
    <vehicle id="veh27" depart="56.16" departLane="best" departPos="random" departSpeed="max">
        <route edges="-649040853#1 -E3 -E2 -649064895 649064895 E2 E3 649040853#1 -223632522"/>
    </vehicle>
    <vehicle id="veh28" depart="58.24" departLane="best" departPos="random" departSpeed="max">
        <route edges="258728090#4 -223632525#2 -223632520#0"/>
    </vehicle>
    <vehicle id="veh29" depart="60.32" departLane="best" departPos="random" departSpeed="max">
        <route edges="-649040853#1 -E3 -E2 -649064895 E4 -258728090#3 -649064896#1"/>
    </vehicle>
    <vehicle id="veh31" depart="64.48" departLane="best" departPos="random" departSpeed="max">
        <route edges="223632525#0 223632525#1 -258728090#4 -258728090#3 -258728090#2 223632517"/>
    </vehicle>
    <vehicle id="veh32" depart="66.56" departLane="best" departPos="random" departSpeed="max">
        <route edges="-223632525#2 -223632520#0"/>
    </vehicle>
    <vehicle id="veh33" depart="68.64" departLane="best" departPos="random" departSpeed="max">
        <route edges="-649036317#3 E1 -258728090#4 -E4"/>
    </vehicle>
    <vehicle id="veh34" depart="70.72" departLane="best" departPos="random" departSpeed="max">
        <route edges="-258728090#4 258728090#4 -223632525#2 223632520#1 E1"/>
    </vehicle>
    <vehicle id="veh35" depart="72.80" departLane="best" departPos="random" departSpeed="max">
        <route edges="-649064896#1 E4 258728090#4 -E1 223632520#2"/>
    </vehicle>
    <vehicle id="veh36" depart="74.88" departLane="best" departPos="random" departSpeed="max">
        <route edges="223632525#0 223632525#1 -258728090#4 -E4 649064896#1"/>
    </vehicle>
    <vehicle id="veh37" depart="76.96" departLane="best" departPos="random" departSpeed="max">
        <route edges="258728090#3 258728090#4 -E1"/>
    </vehicle>
    <vehicle id="veh38" depart="79.04" departLane="best" departPos="random" departSpeed="max">
        <route edges="258728090#4 -E1 223632520#2 -E2 -649064895 649064896#1 -258728090#2 223632517 -E3"/>
    </vehicle>
    <vehicle id="veh40" depart="83.20" departLane="best" departPos="random" departSpeed="max">
        <route edges="E3 -223632517 258728090#1 258728090#3 258728090#4 -E1 649036317#3"/>
    </vehicle>
    <vehicle id="veh41" depart="85.28" departLane="best" departPos="random" departSpeed="max">
        <route edges="223632522 -649040853#1 -223632517 -258728090#0 671642282 223632526"/>
    </vehicle>
    <vehicle id="veh42" depart="87.36" departLane="best" departPos="random" departSpeed="max">
        <route edges="649064896#1 -258728090#2 -258728090#0 671642282 223632526"/>
    </vehicle>
    <vehicle id="veh43" depart="89.44" departLane="best" departPos="random" departSpeed="max">
        <route edges="223632525#0 223632520#1 223632520#2 -E2 -649064895"/>
    </vehicle>
    <vehicle id="veh44" depart="91.52" departLane="best" departPos="random" departSpeed="max">
        <route edges="-258728090#3 -649064896#1 E4 258728090#4 -223632525#2 -223632525#0"/>
    </vehicle>
    <vehicle id="veh45" depart="93.60" departLane="best" departPos="random" departSpeed="max">
        <route edges="-E1 223632520#2 E3"/>
    </vehicle>
    <vehicle id="veh46" depart="95.68" departLane="best" departPos="random" departSpeed="max">
        <route edges="649064896#1 258728090#3"/>
    </vehicle>
    <vehicle id="veh47" depart="97.76" departLane="best" departPos="random" departSpeed="max">
        <route edges="-649036317#3 -223632520#1 -223632520#0"/>
    </vehicle>
    <vehicle id="veh48" depart="99.84" departLane="best" departPos="random" departSpeed="max">
        <route edges="649064895 E2 E3"/>
    </vehicle>
    <vehicle id="veh49" depart="101.92" departLane="best" departPos="random" departSpeed="max">
        <route edges="-E2 -649064895 E4 258728090#4 -E1 649036317#3"/>
    </vehicle>
    <vehicle id="veh50" depart="104.00" departLane="best" departPos="random" departSpeed="max">
        <route edges="E2 E3 -223632517 -258728090#0 671642282 223632526"/>
    </vehicle>
    <vehicle id="veh51" depart="106.08" departLane="best" departPos="random" departSpeed="max">
        <route edges="-671642282 258728090#0 258728090#1 -649064896#1 649064895 E2 E3"/>
    </vehicle>
    <vehicle id="veh52" depart="108.16" departLane="best" departPos="random" departSpeed="max">
        <route edges="-E4 649064895"/>
    </vehicle>
    <vehicle id="veh54" depart="112.32" departLane="best" departPos="random" departSpeed="max">
        <route edges="-E2 -649064895 649064895 E2 E3 649040853#1 -223632522"/>
    </vehicle>
    <vehicle id="veh55" depart="114.40" departLane="best" departPos="random" departSpeed="max">
        <route edges="-E2 -649064895 E4 258728090#4 -223632525#2 -223632520#0"/>
    </vehicle>
    <vehicle id="veh56" depart="116.48" departLane="best" departPos="random" departSpeed="max">
        <route edges="223632522 -649040853#1 -E3 -223632520#2 -223632520#1 -223632520#0"/>
    </vehicle>
    <vehicle id="veh57" depart="118.56" departLane="best" departPos="random" departSpeed="max">
        <route edges="-649036317#3 E1 -223632525#2 223632520#1 649036317#3"/>
    </vehicle>
    <vehicle id="veh58" depart="120.64" departLane="best" departPos="random" departSpeed="max">
        <route edges="-E3 -E2 -649064895 E4 258728090#4"/>
    </vehicle>
    <vehicle id="veh59" depart="122.72" departLane="best" departPos="random" departSpeed="max">
        <route edges="-223632525#2 223632520#1 E1 -258728090#4 -258728090#3 -649064896#1"/>
    </vehicle>
    <vehicle id="veh60" depart="124.80" departLane="best" departPos="random" departSpeed="max">
        <route edges="-E3 -223632520#2 649036317#3"/>
    </vehicle>
    <vehicle id="veh62" depart="128.96" departLane="best" departPos="random" departSpeed="max">
        <route edges="223632525#0 223632525#1 -258728090#4 -E4 649064895 E2 -223632520#2"/>
    </vehicle>
    <vehicle id="veh64" depart="133.12" departLane="best" departPos="random" departSpeed="max">
        <route edges="-649064895 E4"/>
    </vehicle>
    <vehicle id="veh65" depart="135.20" departLane="best" departPos="random" departSpeed="max">
        <route edges="-223632520#2 E1 -258728090#4 -258728090#3 -258728090#2 -258728090#0"/>
    </vehicle>
    <vehicle id="veh66" depart="137.28" departLane="best" departPos="random" departSpeed="max">
        <route edges="223632520#2 -E2 -649064895 E4 258728090#4 -223632525#2 -223632520#0"/>
    </vehicle>
    <vehicle id="veh67" depart="139.36" departLane="best" departPos="random" departSpeed="max">
        <route edges="-223632520#1 223632525#1 -258728090#4 -258728090#3 -258728090#2 -258728090#0"/>
    </vehicle>
    <vehicle id="veh68" depart="141.44" departLane="best" departPos="random" departSpeed="max">
        <route edges="-223632520#1 223632525#1"/>
    </vehicle>
    <vehicle id="veh69" depart="143.52" departLane="best" departPos="random" departSpeed="max">
        <route edges="-649036317#3 E1 -258728090#4 -E4 649064895 E2 -223632520#2"/>
    </vehicle>
    <vehicle id="veh70" depart="145.60" departLane="best" departPos="random" departSpeed="max">
        <route edges="-E4 649064895 E2 E3 649040853#1"/>
    </vehicle>
    <vehicle id="veh71" depart="147.68" departLane="best" departPos="random" departSpeed="max">
        <route edges="-E4 649064895"/>
    </vehicle>
    <vehicle id="veh72" depart="149.76" departLane="best" departPos="random" departSpeed="max">
        <route edges="E1 -258728090#4 -E4"/>
    </vehicle>
    <vehicle id="veh73" depart="151.84" departLane="best" departPos="random" departSpeed="max">
        <route edges="E1 -223632525#2 223632520#1"/>
    </vehicle>
    <vehicle id="veh74" depart="153.92" departLane="best" departPos="random" departSpeed="max">
        <route edges="223632522 -649040853#1 -E3 -E2 -649064895 649064895"/>
    </vehicle>
    <vehicle id="veh75" depart="156.00" departLane="best" departPos="random" departSpeed="max">
        <route edges="223632520#2 -E2 -649064895 649064896#1"/>
    </vehicle>
    <vehicle id="veh76" depart="158.08" departLane="best" departPos="random" departSpeed="max">
        <route edges="223632520#0 223632520#1 223632520#2 -E2 -649064895"/>
    </vehicle>
    <vehicle id="veh77" depart="160.16" departLane="best" departPos="random" departSpeed="max">
        <route edges="-649064895 649064895 E2"/>
    </vehicle>
    <vehicle id="veh78" depart="162.24" departLane="best" departPos="random" departSpeed="max">
        <route edges="223632522 -649040853#1 -E3 -223632520#2 -223632520#1 -223632520#0"/>
    </vehicle>
    <vehicle id="veh79" depart="164.32" departLane="best" departPos="random" departSpeed="max">
        <route edges="-223632520#2 -223632520#1 -223632525#0"/>
    </vehicle>
    <vehicle id="veh80" depart="166.40" departLane="best" departPos="random" departSpeed="max">
        <route edges="-144943776 -649040853#1 -E3 -E2 -649064895 E4 258728090#4 -E1"/>
    </vehicle>
    <vehicle id="veh81" depart="168.48" departLane="best" departPos="random" departSpeed="max">
        <route edges="-144943776 -649040853#1 -E3 -E2 -649064895 E4 258728090#4 -223632525#2"/>
    </vehicle>
    <vehicle id="veh82" depart="170.56" departLane="best" departPos="random" departSpeed="max">
        <route edges="223632525#1 -258728090#4 -E4 649064895 E2 E3 -223632517"/>
    </vehicle>
    <vehicle id="veh83" depart="172.64" departLane="best" departPos="random" departSpeed="max">
        <route edges="-258728090#3 -649064896#1 E4 258728090#4 -223632525#2 -223632525#0"/>
    </vehicle>
    <vehicle id="veh84" depart="174.72" departLane="best" departPos="random" departSpeed="max">
        <route edges="-223632526 -671642282 258728090#0 223632517 -E3 -223632520#2 -223632520#1"/>
    </vehicle>
    <vehicle id="veh85" depart="176.80" departLane="best" departPos="random" departSpeed="max">
        <route edges="223632525#0 223632520#1 223632520#2 E3 -223632517 -258728090#0"/>
    </vehicle>
    <vehicle id="veh86" depart="178.88" departLane="best" departPos="random" departSpeed="max">
        <route edges="-258728090#3 -649064896#1 649064895 -649064895"/>
    </vehicle>
    <vehicle id="veh87" depart="180.96" departLane="best" departPos="random" departSpeed="max">
        <route edges="E2 E3 -223632517 -258728090#0 671642282 223632526"/>
    </vehicle>
    <vehicle id="veh89" depart="185.12" departLane="best" departPos="random" departSpeed="max">
        <route edges="223632522 -649040853#1 -223632517 -258728090#0 671642282"/>
    </vehicle>
    <vehicle id="veh90" depart="187.20" departLane="best" departPos="random" departSpeed="max">
        <route edges="-649064895 E4 258728090#4 -223632525#2"/>
    </vehicle>
    <vehicle id="veh91" depart="189.28" departLane="best" departPos="random" departSpeed="max">
        <route edges="-144943776 -649040853#1 -E3 -223632520#2 -223632520#1"/>
    </vehicle>
    <vehicle id="veh92" depart="191.36" departLane="best" departPos="random" departSpeed="max">
        <route edges="223632520#2 E3 -223632517 -258728090#0 671642282 223632526"/>
    </vehicle>
    <vehicle id="veh93" depart="193.44" departLane="best" departPos="random" departSpeed="max">
        <route edges="-258728090#4 258728090#4"/>
    </vehicle>
    <vehicle id="veh94" depart="195.52" departLane="best" departPos="random" departSpeed="max">
        <route edges="-223632520#2 E1 -258728090#4 -E4 649064895"/>
    </vehicle>
    <vehicle id="veh95" depart="197.60" departLane="best" departPos="random" departSpeed="max">
        <route edges="258728090#1 -649064896#1 649064895 E2 E3 649040853#1 649040853#2"/>
    </vehicle>
    <vehicle id="veh96" depart="199.68" departLane="best" departPos="random" departSpeed="max">
        <route edges="-E4 649064896#1 258728090#3 258728090#4 -E1 223632520#2 -E2"/>
    </vehicle>
    <vehicle id="veh97" depart="201.76" departLane="best" departPos="random" departSpeed="max">
        <route edges="-223632520#2 E1 -258728090#4 258728090#4"/>
    </vehicle>
    <vehicle id="veh98" depart="203.84" departLane="best" departPos="random" departSpeed="max">
        <route edges="E4 -258728090#3 -258728090#2 -258728090#0 671642282 223632526"/>
    </vehicle>
    <vehicle id="veh100" depart="208.00" departLane="best" departPos="random" departSpeed="max">
        <route edges="223632517 649040853#1 -223632522"/>
    </vehicle>
    <vehicle id="veh101" depart="210.08" departLane="best" departPos="random" departSpeed="max">
        <route edges="223632522 -649040853#1 -E3 -223632520#2"/>
    </vehicle>
    <vehicle id="veh102" depart="212.16" departLane="best" departPos="random" departSpeed="max">
        <route edges="-223632526 -671642282 258728090#0 258728090#1 -649064896#1 649064896#1 -258728090#2 -258728090#0 671642282 223632526"/>
    </vehicle>
    <vehicle id="veh103" depart="214.24" departLane="best" departPos="random" departSpeed="max">
        <route edges="258728090#3 -258728090#3"/>
    </vehicle>
    <vehicle id="veh104" depart="216.32" departLane="best" departPos="random" departSpeed="max">
        <route edges="223632520#0 223632525#1 -258728090#4 -258728090#3 -258728090#2 223632517 -E3"/>
    </vehicle>
    <vehicle id="veh105" depart="218.40" departLane="best" departPos="random" departSpeed="max">
        <route edges="223632525#0 223632520#1 223632520#2 E3 -223632517 258728090#1"/>
    </vehicle>
    <vehicle id="veh106" depart="220.48" departLane="best" departPos="random" departSpeed="max">
        <route edges="223632520#2 E3 -223632517 258728090#1"/>
    </vehicle>
    <vehicle id="veh107" depart="222.56" departLane="best" departPos="random" departSpeed="max">
        <route edges="223632520#1 223632520#2 E3 -223632517 -258728090#0 671642282"/>
    </vehicle>
    <vehicle id="veh108" depart="224.64" departLane="best" departPos="random" departSpeed="max">
        <route edges="-649064895 649064896#1 258728090#3 -E4"/>
    </vehicle>
    <vehicle id="veh109" depart="226.72" departLane="best" departPos="random" departSpeed="max">
        <route edges="649064896#1 258728090#3 -E4 649064895 E2 E3 649040853#1 649040853#2"/>
    </vehicle>
    <vehicle id="veh110" depart="228.80" departLane="best" departPos="random" departSpeed="max">
        <route edges="-649064895 649064895 E2 E3"/>
    </vehicle>
    <vehicle id="veh111" depart="230.88" departLane="best" departPos="random" departSpeed="max">
        <route edges="-144943776 -649040853#1 -E3 -223632520#2 -223632520#1 -223632525#0"/>
    </vehicle>
    <vehicle id="veh112" depart="232.96" departLane="best" departPos="random" departSpeed="max">
        <route edges="223632520#1 223632520#2 E3 -223632517 -258728090#0"/>
    </vehicle>
    <vehicle id="veh113" depart="235.04" departLane="best" departPos="random" departSpeed="max">
        <route edges="-258728090#4 -E4 649064895 E2 E3 649040853#1 -223632522"/>
    </vehicle>
    <vehicle id="veh114" depart="237.12" departLane="best" departPos="random" departSpeed="max">
        <route edges="258728090#1 -649064896#1 649064895 E2 -223632520#2 E1"/>
    </vehicle>
    <vehicle id="veh115" depart="239.20" departLane="best" departPos="random" departSpeed="max">
        <route edges="649064895 E2 E3 649040853#1 649040853#2"/>
    </vehicle>
    <vehicle id="veh116" depart="241.28" departLane="best" departPos="random" departSpeed="max">
        <route edges="E1 -258728090#4 -258728090#3 -258728090#2 223632517 -E3"/>
    </vehicle>
    <vehicle id="veh119" depart="247.52" departLane="best" departPos="random" departSpeed="max">
        <route edges="258728090#4 -223632525#2"/>
    </vehicle>
    <vehicle id="veh120" depart="249.60" departLane="best" departPos="random" departSpeed="max">
        <route edges="-223632526 -671642282 258728090#0 223632517 -E3 -223632520#2 649036317#3"/>
    </vehicle>
    <vehicle id="veh121" depart="251.68" departLane="best" departPos="random" departSpeed="max">
        <route edges="-258728090#4 -258728090#3 -649064896#1 E4"/>
    </vehicle>
    <vehicle id="veh122" depart="253.76" departLane="best" departPos="random" departSpeed="max">
        <route edges="223632525#1 -258728090#4 -258728090#3 -258728090#2 -258728090#0 671642282 223632526"/>
    </vehicle>
    <vehicle id="veh123" depart="255.84" departLane="best" departPos="random" departSpeed="max">
        <route edges="223632517 -E3"/>
    </vehicle>
    <vehicle id="veh124" depart="257.92" departLane="best" departPos="random" departSpeed="max">
        <route edges="-E2 -649064895 649064895 E2 E3 649040853#1 -223632522"/>
    </vehicle>
    <vehicle id="veh125" depart="260.00" departLane="best" departPos="random" departSpeed="max">
        <route edges="258728090#1 258728090#3 258728090#4 -223632525#2 -223632525#0"/>
    </vehicle>
    <vehicle id="veh126" depart="262.08" departLane="best" departPos="random" departSpeed="max">
        <route edges="223632520#0 223632525#1 -E1"/>
    </vehicle>
    <vehicle id="veh127" depart="264.16" departLane="best" departPos="random" departSpeed="max">
        <route edges="-649036317#3 223632520#2 E3 649040853#1"/>
    </vehicle>
    <vehicle id="veh128" depart="266.24" departLane="best" departPos="random" departSpeed="max">
        <route edges="-E3 -E2 -649064895 649064895 E2 E3 649040853#1 -223632522"/>
    </vehicle>
    <vehicle id="veh129" depart="268.32" departLane="best" departPos="random" departSpeed="max">
        <route edges="258728090#3 -E4 649064895 E2 -223632520#2"/>
    </vehicle>
    <vehicle id="veh130" depart="270.40" departLane="best" departPos="random" departSpeed="max">
        <route edges="-649064896#1 649064895 E2"/>
    </vehicle>
    <vehicle id="veh131" depart="272.48" departLane="best" departPos="random" departSpeed="max">
        <route edges="649064896#1 258728090#3 258728090#4 -E1 649036317#3"/>
    </vehicle>
    <vehicle id="veh132" depart="274.56" departLane="best" departPos="random" departSpeed="max">
        <route edges="E3 -223632517 258728090#1 -649064896#1 E4 -258728090#3"/>
    </vehicle>
    <vehicle id="veh133" depart="276.64" departLane="best" departPos="random" departSpeed="max">
        <route edges="223632522 -649040853#1 -E3 -E2 -649064895 649064895 E2 E3 649040853#1 -223632522"/>
    </vehicle>
    <vehicle id="veh134" depart="278.72" departLane="best" departPos="random" departSpeed="max">
        <route edges="-649036317#3 E1 -258728090#4 -258728090#3 -258728090#2 223632517"/>
    </vehicle>
    <vehicle id="veh135" depart="280.80" departLane="best" departPos="random" departSpeed="max">
        <route edges="-223632525#2 223632520#1 E1"/>
    </vehicle>
    <vehicle id="veh136" depart="282.88" departLane="best" departPos="random" departSpeed="max">
        <route edges="-649036317#3 223632520#2 E3 649040853#1 649040853#2"/>
    </vehicle>
    <vehicle id="veh137" depart="284.96" departLane="best" departPos="random" departSpeed="max">
        <route edges="-E2 -649064895 E4 258728090#4 -223632525#2"/>
    </vehicle>
    <vehicle id="veh138" depart="287.04" departLane="best" departPos="random" departSpeed="max">
        <route edges="258728090#4 -223632525#2 223632520#1 E1 -258728090#4"/>
    </vehicle>
    <vehicle id="veh139" depart="289.12" departLane="best" departPos="random" departSpeed="max">
        <route edges="258728090#3 -E4 649064895 E2 E3 649040853#1 -223632522"/>
    </vehicle>
    <vehicle id="veh140" depart="291.20" departLane="best" departPos="random" departSpeed="max">
        <route edges="E4 258728090#4 -E1 223632520#2 E3 -223632517"/>
    </vehicle>
    <vehicle id="veh142" depart="295.36" departLane="best" departPos="random" departSpeed="max">
        <route edges="-649036317#3 E1"/>
    </vehicle>
    <vehicle id="veh143" depart="297.44" departLane="best" departPos="random" departSpeed="max">
        <route edges="223632522 -649040853#1 -E3 -E2 -649064895 649064895 E2 E3 649040853#1"/>
    </vehicle>
    <vehicle id="veh144" depart="299.52" departLane="best" departPos="random" departSpeed="max">
        <route edges="223632520#0 -223632525#0"/>
    </vehicle>
    <vehicle id="veh146" depart="303.68" departLane="best" departPos="random" departSpeed="max">
        <route edges="-144943776 -649040853#1 -223632517 -258728090#0 671642282 223632526"/>
    </vehicle>
    <vehicle id="veh147" depart="305.76" departLane="best" departPos="random" departSpeed="max">
        <route edges="223632525#1 -E1 649036317#3"/>
    </vehicle>
    <vehicle id="veh148" depart="307.84" departLane="best" departPos="random" departSpeed="max">
        <route edges="223632520#0 223632520#1 223632520#2 E3 -223632517 -258728090#0 671642282"/>
    </vehicle>
    <vehicle id="veh149" depart="309.92" departLane="best" departPos="random" departSpeed="max">
        <route edges="223632522 -649040853#1"/>
    </vehicle>
    <vehicle id="veh150" depart="312.00" departLane="best" departPos="random" departSpeed="max">
        <route edges="-223632526 -671642282 258728090#0 223632517 -E3 -223632520#2 649036317#3"/>
    </vehicle>
    <vehicle id="veh152" depart="316.16" departLane="best" departPos="random" departSpeed="max">
        <route edges="223632525#0 223632525#1 -E1 -223632520#1"/>
    </vehicle>
    <vehicle id="veh153" depart="318.24" departLane="best" departPos="random" departSpeed="max">
        <route edges="223632520#0 223632520#1 E1 -223632525#2"/>
    </vehicle>
    <vehicle id="veh154" depart="320.32" departLane="best" departPos="random" departSpeed="max">
        <route edges="-223632520#2 E1 -258728090#4 -E4 649064895 E2 E3 -223632517 258728090#1"/>
    </vehicle>
    <vehicle id="veh155" depart="322.40" departLane="best" departPos="random" departSpeed="max">
        <route edges="649064896#1 258728090#3 258728090#4 -223632525#2 -223632520#0"/>
    </vehicle>
    <vehicle id="veh156" depart="324.48" departLane="best" departPos="random" departSpeed="max">
        <route edges="E2 E3 -223632517 258728090#1 -649064896#1"/>
    </vehicle>
    <vehicle id="veh157" depart="326.56" departLane="best" departPos="random" departSpeed="max">
        <route edges="-E1 -223632520#1 -223632525#0"/>
    </vehicle>
    <vehicle id="veh158" depart="328.64" departLane="best" departPos="random" departSpeed="max">
        <route edges="223632525#1 -258728090#4 -258728090#3 -258728090#2 223632517"/>
    </vehicle>
    <vehicle id="veh159" depart="330.72" departLane="best" departPos="random" departSpeed="max">
        <route edges="-258728090#4 258728090#4"/>
    </vehicle>
    <vehicle id="veh161" depart="334.88" departLane="best" departPos="random" departSpeed="max">
        <route edges="223632525#0 223632520#1 223632520#2 E3 649040853#1 649040853#2"/>
    </vehicle>
    <vehicle id="veh162" depart="336.96" departLane="best" departPos="random" departSpeed="max">
        <route edges="-258728090#3 -649064896#1 649064895 E2 -223632520#2 649036317#3"/>
    </vehicle>
    <vehicle id="veh163" depart="339.04" departLane="best" departPos="random" departSpeed="max">
        <route edges="-223632520#2 -223632520#1 -223632525#0"/>
    </vehicle>
    <vehicle id="veh164" depart="341.12" departLane="best" departPos="random" departSpeed="max">
        <route edges="-649064896#1 E4 258728090#4 -223632525#2 -223632520#0"/>
    </vehicle>
    <vehicle id="veh165" depart="343.20" departLane="best" departPos="random" departSpeed="max">
        <route edges="258728090#4 -E1 223632520#2 -E2 -649064895 649064896#1 -258728090#2 223632517 -E3"/>
    </vehicle>
    <vehicle id="veh166" depart="345.28" departLane="best" departPos="random" departSpeed="max">
        <route edges="-671642282 258728090#0 258728090#1 258728090#3 258728090#4 -E1"/>
    </vehicle>
    <vehicle id="veh167" depart="347.36" departLane="best" departPos="random" departSpeed="max">
        <route edges="E1 -258728090#4 -258728090#3 -258728090#2 -258728090#0 671642282"/>
    </vehicle>
    <vehicle id="veh169" depart="351.52" departLane="best" departPos="random" departSpeed="max">