<?xml version="1.0" encoding="UTF-8"?>

<!-- generated on 2025-05-11 06:46:23.338867 by randomTrips.py v1_22_0+0002-63e50f52594
<configuration>
    <net-file value="E:/licenta/oras-mic/2025-05-08-13-35-40\osm.net.xml"/>
    <output-trip-file value="E:/licenta/oras-mic/2025-05-08-13-35-40\trips.trips.xml"/>
    <route-file value="E:/licenta/oras-mic/2025-05-08-13-35-40\generated_routes\routes_worker2_aade89b4.rou.xml"/>
    <prefix value="veh"/>
    <trip-attributes value="departLane=&quot;best&quot; departSpeed=&quot;max&quot; departPos=&quot;random&quot;"/>
    <fringe-factor value="1.4"/>
    <seed value="95877"/>
    <end value="600.0"/>
    <period value="2.22"/>
</configuration>
-->

<!-- generated on 2025-05-11 06:46:23 by Eclipse SUMO duarouter Version 1.22.0
<duarouterConfiguration xmlns:xsi="http://www.w3.org/2001/XMLSchema-instance" xsi:noNamespaceSchemaLocation="http://sumo.dlr.de/xsd/duarouterConfiguration.xsd">

    <input>
        <net-file value="E:/licenta/oras-mic/2025-05-08-13-35-40\osm.net.xml"/>
        <route-files value="E:/licenta/oras-mic/2025-05-08-13-35-40\trips.trips.xml"/>
    </input>

    <output>
        <output-file value="E:/licenta/oras-mic/2025-05-08-13-35-40\generated_routes\routes_worker2_aade89b4.rou.xml"/>
        <alternatives-output value="NUL"/>
    </output>

    <time>
        <begin value="0"/>
        <end value="600.0"/>
    </time>

    <report>
        <no-warnings value="true"/>
        <ignore-errors value="true"/>
        <no-step-log value="true"/>
    </report>

</duarouterConfiguration>
-->

<routes xmlns:xsi="http://www.w3.org/2001/XMLSchema-instance" xsi:noNamespaceSchemaLocation="http://sumo.dlr.de/xsd/routes_file.xsd">
    <vehicle id="veh0" depart="0.00" departLane="best" departPos="random" departSpeed="max">
        <route edges="-E2 -649064895"/>
    </vehicle>
    <vehicle id="veh1" depart="1.61" departLane="best" departPos="random" departSpeed="max">
        <route edges="E3 -223632517 258728090#1 258728090#3 258728090#4 -223632525#2 223632520#1"/>
    </vehicle>
    <vehicle id="veh2" depart="3.22" departLane="best" departPos="random" departSpeed="max">
        <route edges="E2"/>
    </vehicle>
    <vehicle id="veh3" depart="4.83" departLane="best" departPos="random" departSpeed="max">
        <route edges="649064895 -649064895 E4 258728090#4 -223632525#2 223632520#1"/>
    </vehicle>
    <vehicle id="veh4" depart="6.44" departLane="best" departPos="random" departSpeed="max">
        <route edges="223632520#0 223632520#1"/>
    </vehicle>
    <vehicle id="veh5" depart="8.05" departLane="best" departPos="random" departSpeed="max">
        <route edges="223632525#0 223632525#1 -258728090#4 -258728090#3 -258728090#2 223632517"/>
    </vehicle>
    <vehicle id="veh6" depart="9.66" departLane="best" departPos="random" departSpeed="max">
        <route edges="258728090#4 -E1"/>
    </vehicle>
    <vehicle id="veh7" depart="11.27" departLane="best" departPos="random" departSpeed="max">
        <route edges="223632520#0 223632525#1 -258728090#4 -E4 649064895 E2 -223632520#2"/>
    </vehicle>
    <vehicle id="veh9" depart="14.49" departLane="best" departPos="random" departSpeed="max">
        <route edges="258728090#1 258728090#3 258728090#4 -223632525#2 -223632525#0"/>
    </vehicle>
    <vehicle id="veh10" depart="16.10" departLane="best" departPos="random" departSpeed="max">
        <route edges="-258728090#2 223632517 -E3 -E2 -649064895"/>
    </vehicle>
    <vehicle id="veh11" depart="17.71" departLane="best" departPos="random" departSpeed="max">
        <route edges="-258728090#3 -649064896#1 649064895 E2 -223632520#2 E1"/>
    </vehicle>
    <vehicle id="veh13" depart="20.93" departLane="best" departPos="random" departSpeed="max">
        <route edges="E1 -223632525#2 223632520#1 649036317#3"/>
    </vehicle>
    <vehicle id="veh14" depart="22.54" departLane="best" departPos="random" departSpeed="max">
        <route edges="E4 -258728090#3 -649064896#1 649064895 E2"/>
    </vehicle>
    <vehicle id="veh15" depart="24.15" departLane="best" departPos="random" departSpeed="max">
        <route edges="-649040853#1 -E3 -E2 -649064895 649064895 E2 E3 649040853#1 -223632522"/>
    </vehicle>
    <vehicle id="veh16" depart="25.76" departLane="best" departPos="random" departSpeed="max">
        <route edges="258728090#3 258728090#4 -E1 -223632520#1"/>
    </vehicle>
    <vehicle id="veh18" depart="28.98" departLane="best" departPos="random" departSpeed="max">
        <route edges="-144943776 -649040853#1 -E3 -E2 -649064895 E4 258728090#4 -E1"/>
    </vehicle>
    <vehicle id="veh19" depart="30.59" departLane="best" departPos="random" departSpeed="max">
        <route edges="-649040853#1 -223632517 258728090#1"/>
    </vehicle>
    <vehicle id="veh20" depart="32.20" departLane="best" departPos="random" departSpeed="max">
        <route edges="E4 258728090#4 -223632525#2 -223632520#0"/>
    </vehicle>
    <vehicle id="veh21" depart="33.81" departLane="best" departPos="random" departSpeed="max">
        <route edges="E1 -258728090#4"/>
    </vehicle>
    <vehicle id="veh22" depart="35.42" departLane="best" departPos="random" departSpeed="max">
        <route edges="258728090#4 -E1 223632520#2 -E2 -649064895 649064895 E2"/>
    </vehicle>
    <vehicle id="veh23" depart="37.03" departLane="best" departPos="random" departSpeed="max">
        <route edges="223632522 -649040853#1 -E3 -E2 -649064895 649064896#1 258728090#3"/>
    </vehicle>
    <vehicle id="veh24" depart="38.64" departLane="best" departPos="random" departSpeed="max">
        <route edges="E3 649040853#1 649040853#2"/>
    </vehicle>
    <vehicle id="veh26" depart="41.86" departLane="best" departPos="random" departSpeed="max">
        <route edges="E3 -223632517 258728090#1"/>
    </vehicle>
    <vehicle id="veh27" depart="43.47" departLane="best" departPos="random" departSpeed="max">
        <route edges="-258728090#4 -258728090#3 -258728090#2 223632517 -E3"/>
    </vehicle>
    <vehicle id="veh28" depart="45.08" departLane="best" departPos="random" departSpeed="max">
        <route edges="E3 -223632517 258728090#1 -649064896#1 649064895 E2 -223632520#2 E1"/>
    </vehicle>
    <vehicle id="veh29" depart="46.69" departLane="best" departPos="random" departSpeed="max">
        <route edges="-258728090#4 258728090#4 -E1 649036317#3"/>
    </vehicle>
    <vehicle id="veh30" depart="48.30" departLane="best" departPos="random" departSpeed="max">
        <route edges="258728090#3 -E4 649064896#1 -258728090#2 -258728090#0 671642282 223632526"/>
    </vehicle>
    <vehicle id="veh32" depart="51.52" departLane="best" departPos="random" departSpeed="max">
        <route edges="223632525#0 223632525#1 -258728090#4 -258728090#3 -258728090#2 223632517"/>
    </vehicle>
    <vehicle id="veh33" depart="53.13" departLane="best" departPos="random" departSpeed="max">
        <route edges="-223632517 258728090#1 258728090#3 258728090#4 -223632525#2 -223632520#0"/>
    </vehicle>
    <vehicle id="veh34" depart="54.74" departLane="best" departPos="random" departSpeed="max">
        <route edges="-144943776 -649040853#1 -E3 -223632520#2 649036317#3"/>
    </vehicle>
    <vehicle id="veh35" depart="56.35" departLane="best" departPos="random" departSpeed="max">
        <route edges="-223632526 -671642282 258728090#0 258728090#1 -649064896#1 649064895"/>
    </vehicle>
    <vehicle id="veh36" depart="57.96" departLane="best" departPos="random" departSpeed="max">
        <route edges="-258728090#0 671642282"/>
    </vehicle>
    <vehicle id="veh37" depart="59.57" departLane="best" departPos="random" departSpeed="max">
        <route edges="-223632526 -671642282 258728090#0 258728090#1"/>
    </vehicle>
    <vehicle id="veh38" depart="61.18" departLane="best" departPos="random" departSpeed="max">
        <route edges="-671642282 258728090#0 223632517 -E3 -223632520#2 649036317#3"/>
    </vehicle>
    <vehicle id="veh39" depart="62.79" departLane="best" departPos="random" departSpeed="max">
        <route edges="223632517 -E3 -223632520#2 649036317#3"/>
    </vehicle>
    <vehicle id="veh40" depart="64.40" departLane="best" departPos="random" departSpeed="max">
        <route edges="-649036317#3 223632520#2 E3 -223632517"/>
    </vehicle>
    <vehicle id="veh41" depart="66.01" departLane="best" departPos="random" departSpeed="max">
        <route edges="223632520#0 223632525#1 -E1 -223632520#1"/>
    </vehicle>
    <vehicle id="veh42" depart="67.62" departLane="best" departPos="random" departSpeed="max">
        <route edges="223632522 -649040853#1 -E3 -223632520#2 -223632520#1 -223632525#0"/>
    </vehicle>
    <vehicle id="veh43" depart="69.23" departLane="best" departPos="random" departSpeed="max">
        <route edges="223632525#0 223632525#1 -258728090#4 -258728090#3 -258728090#2"/>
    </vehicle>
    <vehicle id="veh44" depart="70.84" departLane="best" departPos="random" departSpeed="max">
        <route edges="-E2 -649064895 E4 258728090#4 -E1 649036317#3"/>
    </vehicle>
    <vehicle id="veh45" depart="72.45" departLane="best" departPos="random" departSpeed="max">
        <route edges="258728090#3 -E4 649064896#1 -258728090#2 -258728090#0 671642282 223632526"/>
    </vehicle>
    <vehicle id="veh46" depart="74.06" departLane="best" departPos="random" departSpeed="max">
        <route edges="E4 -258728090#3 -258728090#2 -258728090#0 671642282 223632526"/>
    </vehicle>
    <vehicle id="veh47" depart="75.67" departLane="best" departPos="random" departSpeed="max">
        <route edges="-223632520#1 223632525#1 -E1 649036317#3"/>
    </vehicle>
    <vehicle id="veh48" depart="77.28" departLane="best" departPos="random" departSpeed="max">
        <route edges="-649064895 E4 258728090#4 -E1 649036317#3"/>
    </vehicle>
    <vehicle id="veh50" depart="80.50" departLane="best" departPos="random" departSpeed="max">
        <route edges="E2 -223632520#2 E1 -258728090#4 -E4 649064895"/>
    </vehicle>
    <vehicle id="veh51" depart="82.11" departLane="best" departPos="random" departSpeed="max">
        <route edges="E1 -258728090#4 -258728090#3 -258728090#2 -258728090#0 671642282"/>
    </vehicle>
    <vehicle id="veh52" depart="83.72" departLane="best" departPos="random" departSpeed="max">
        <route edges="-649036317#3 223632520#2 E3 -223632517 258728090#1"/>
    </vehicle>
    <vehicle id="veh53" depart="85.33" departLane="best" departPos="random" departSpeed="max">
        <route edges="223632525#0 223632520#1 649036317#3"/>
    </vehicle>
    <vehicle id="veh54" depart="86.94" departLane="best" departPos="random" departSpeed="max">
        <route edges="-223632520#2 E1 -258728090#4 -E4 649064895 E2 E3 -223632517"/>
    </vehicle>
    <vehicle id="veh55" depart="88.55" departLane="best" departPos="random" departSpeed="max">
        <route edges="223632520#2 -E2 -649064895 649064896#1 258728090#3"/>
    </vehicle>
    <vehicle id="veh56" depart="90.16" departLane="best" departPos="random" departSpeed="max">
        <route edges="E4 -258728090#3 -649064896#1 649064895 E2"/>
    </vehicle>
    <vehicle id="veh57" depart="91.77" departLane="best" departPos="random" departSpeed="max">
        <route edges="-E3 -E2 -649064895 649064896#1"/>
    </vehicle>
    <vehicle id="veh58" depart="93.38" departLane="best" departPos="random" departSpeed="max">
        <route edges="649064896#1 -258728090#2 -258728090#0"/>
    </vehicle>
    <vehicle id="veh59" depart="94.99" departLane="best" departPos="random" departSpeed="max">
        <route edges="649040853#1 -223632522"/>
    </vehicle>
    <vehicle id="veh60" depart="96.60" departLane="best" departPos="random" departSpeed="max">
        <route edges="-144943776 -649040853#1 -E3 -E2 -649064895 E4 258728090#4 -E1 223632520#2"/>
    </vehicle>
    <vehicle id="veh61" depart="98.21" departLane="best" departPos="random" departSpeed="max">
        <route edges="223632520#2 E3 -223632517 -258728090#0 671642282 223632526"/>
    </vehicle>
    <vehicle id="veh63" depart="101.43" departLane="best" departPos="random" departSpeed="max">
        <route edges="-E3 -E2 -649064895 E4 258728090#4 -223632525#2 223632520#1"/>
    </vehicle>
    <vehicle id="veh64" depart="103.04" departLane="best" departPos="random" departSpeed="max">
        <route edges="258728090#0 223632517 649040853#1"/>
    </vehicle>
    <vehicle id="veh65" depart="104.65" departLane="best" departPos="random" departSpeed="max">
        <route edges="-223632520#2 -223632520#1 223632525#1 -E1"/>
    </vehicle>
    <vehicle id="veh66" depart="106.26" departLane="best" departPos="random" departSpeed="max">
        <route edges="-144943776 -649040853#1 -223632517"/>
    </vehicle>
    <vehicle id="veh67" depart="107.87" departLane="best" departPos="random" departSpeed="max">
        <route edges="223632520#0 223632520#1 223632520#2 E3"/>
    </vehicle>
    <vehicle id="veh68" depart="109.48" departLane="best" departPos="random" departSpeed="max">
        <route edges="-223632526 -671642282 258728090#0 258728090#1 -649064896#1 649064896#1"/>
    </vehicle>
    <vehicle id="veh69" depart="111.09" departLane="best" departPos="random" departSpeed="max">
        <route edges="-649064896#1 649064896#1 -258728090#2"/>
    </vehicle>
    <vehicle id="veh70" depart="112.70" departLane="best" departPos="random" departSpeed="max">
        <route edges="258728090#4 -E1 223632520#2 E3 649040853#1 -223632522"/>
    </vehicle>
    <vehicle id="veh71" depart="114.31" departLane="best" departPos="random" departSpeed="max">
        <route edges="223632522 -649040853#1 -E3 -E2 -649064895 E4 258728090#4 -223632525#2 223632520#1"/>
    </vehicle>
    <vehicle id="veh72" depart="115.92" departLane="best" departPos="random" departSpeed="max">
        <route edges="-223632520#1"/>
    </vehicle>
    <vehicle id="veh73" depart="117.53" departLane="best" departPos="random" departSpeed="max">
        <route edges="223632525#0 223632525#1 -258728090#4 -258728090#3 -649064896#1"/>
    </vehicle>
    <vehicle id="veh74" depart="119.14" departLane="best" departPos="random" departSpeed="max">
        <route edges="-E2 -649064895 E4 258728090#4 -E1"/>
    </vehicle>
    <vehicle id="veh75" depart="120.75" departLane="best" departPos="random" departSpeed="max">
        <route edges="649064896#1 258728090#3 -E4 649064895 -649064895"/>
    </vehicle>
    <vehicle id="veh77" depart="123.97" departLane="best" departPos="random" departSpeed="max">
        <route edges="-649036317#3 E1 -223632525#2 223632520#1 649036317#3"/>
    </vehicle>
    <vehicle id="veh78" depart="125.58" departLane="best" departPos="random" departSpeed="max">
        <route edges="-144943776 -649040853#1 -E3 -E2 -649064895 649064895"/>
    </vehicle>
    <vehicle id="veh80" depart="128.80" departLane="best" departPos="random" departSpeed="max">
        <route edges="-144943776 -649040853#1 -E3 -E2 -649064895 649064896#1"/>
    </vehicle>
    <vehicle id="veh81" depart="130.41" departLane="best" departPos="random" departSpeed="max">
        <route edges="-E4 649064895 E2"/>
    </vehicle>
    <vehicle id="veh82" depart="132.02" departLane="best" departPos="random" departSpeed="max">
        <route edges="-223632517 258728090#1 258728090#3 258728090#4 -E1"/>
    </vehicle>
    <vehicle id="veh83" depart="133.63" departLane="best" departPos="random" departSpeed="max">
        <route edges="223632525#0 223632520#1 223632520#2"/>
    </vehicle>
    <vehicle id="veh86" depart="138.46" departLane="best" departPos="random" departSpeed="max">
        <route edges="-144943776 -649040853#1 -E3 -223632520#2 649036317#3"/>
    </vehicle>
    <vehicle id="veh87" depart="140.07" departLane="best" departPos="random" departSpeed="max">
        <route edges="223632525#1 -258728090#4 -258728090#3 -258728090#2 223632517"/>
    </vehicle>
    <vehicle id="veh88" depart="141.68" departLane="best" departPos="random" departSpeed="max">
        <route edges="223632520#0 223632520#1 E1 -223632525#2"/>
    </vehicle>
    <vehicle id="veh89" depart="143.29" departLane="best" departPos="random" departSpeed="max">
        <route edges="258728090#0 223632517 -E3 -223632520#2 649036317#3"/>
    </vehicle>
    <vehicle id="veh90" depart="144.90" departLane="best" departPos="random" departSpeed="max">
        <route edges="223632520#1 223632520#2 E3 649040853#1 -223632522"/>
    </vehicle>
    <vehicle id="veh91" depart="146.51" departLane="best" departPos="random" departSpeed="max">
        <route edges="-258728090#3 -649064896#1 649064896#1 258728090#3 -E4"/>
    </vehicle>
    <vehicle id="veh92" depart="148.12" departLane="best" departPos="random" departSpeed="max">
        <route edges="-258728090#3 -649064896#1 649064895 E2 -223632520#2 649036317#3"/>
    </vehicle>
    <vehicle id="veh93" depart="149.73" departLane="best" departPos="random" departSpeed="max">
        <route edges="-E2 -649064895 E4 258728090#4 -223632525#2 -223632525#0"/>
    </vehicle>
    <vehicle id="veh95" depart="152.95" departLane="best" departPos="random" departSpeed="max">
        <route edges="-144943776 -649040853#1 -E3 -E2 -649064895 E4 258728090#4 -E1 223632520#2"/>
    </vehicle>
    <vehicle id="veh96" depart="154.56" departLane="best" departPos="random" departSpeed="max">
        <route edges="223632525#1 -258728090#4 258728090#4"/>
    </vehicle>
    <vehicle id="veh98" depart="157.78" departLane="best" departPos="random" departSpeed="max">
        <route edges="-223632520#1 223632525#1 -258728090#4 -E4 649064895 E2 E3 649040853#1 649040853#2"/>
    </vehicle>
    <vehicle id="veh100" depart="161.00" departLane="best" departPos="random" departSpeed="max">
        <route edges="-649040853#1 -E3 -E2 -649064895 649064895 E2 E3 649040853#1 -223632522"/>
    </vehicle>
    <vehicle id="veh101" depart="162.61" departLane="best" departPos="random" departSpeed="max">
        <route edges="258728090#1 -649064896#1 649064895 E2 E3 649040853#1 649040853#2"/>
    </vehicle>
    <vehicle id="veh102" depart="164.22" departLane="best" departPos="random" departSpeed="max">
        <route edges="E2 -223632520#2 -223632520#1 223632525#1 -E1"/>
    </vehicle>
    <vehicle id="veh103" depart="165.83" departLane="best" departPos="random" departSpeed="max">
        <route edges="-258728090#4"/>
    </vehicle>
    <vehicle id="veh105" depart="169.05" departLane="best" departPos="random" departSpeed="max">
        <route edges="-223632525#2 223632520#1 223632520#2 E3 -223632517 -258728090#0 671642282 223632526"/>
    </vehicle>
    <vehicle id="veh106" depart="170.66" departLane="best" departPos="random" departSpeed="max">
        <route edges="-E4 649064895 E2 -223632520#2 -223632520#1 223632525#1"/>
    </vehicle>
    <vehicle id="veh107" depart="172.27" departLane="best" departPos="random" departSpeed="max">
        <route edges="-649040853#1 -E3 -E2 -649064895 649064896#1 -258728090#2 223632517"/>
    </vehicle>
    <vehicle id="veh108" depart="173.88" departLane="best" departPos="random" departSpeed="max">
        <route edges="-671642282 258728090#0 223632517 -E3 -E2 -649064895"/>
    </vehicle>
    <vehicle id="veh109" depart="175.49" departLane="best" departPos="random" departSpeed="max">
        <route edges="-144943776 -649040853#1 -E3 -E2 -649064895 649064895 E2 E3 649040853#1"/>
    </vehicle>
    <vehicle id="veh110" depart="177.10" departLane="best" departPos="random" departSpeed="max">
        <route edges="649064895 E2 E3 -223632517 -258728090#0"/>
    </vehicle>
    <vehicle id="veh111" depart="178.71" departLane="best" departPos="random" departSpeed="max">
        <route edges="-144943776 -649040853#1 -E3 -223632520#2 -223632520#1 -223632525#0"/>
    </vehicle>
    <vehicle id="veh114" depart="183.54" departLane="best" departPos="random" departSpeed="max">
        <route edges="223632520#0 223632525#1"/>
    </vehicle>
    <vehicle id="veh115" depart="185.15" departLane="best" departPos="random" departSpeed="max">
        <route edges="649064896#1 258728090#3 -E4 649064895"/>
    </vehicle>
    <vehicle id="veh116" depart="186.76" departLane="best" departPos="random" departSpeed="max">
        <route edges="258728090#4 -223632525#2 -223632520#0"/>
    </vehicle>
    <vehicle id="veh117" depart="188.37" departLane="best" departPos="random" departSpeed="max">
        <route edges="649064895 E2 E3 649040853#1 649040853#2"/>
    </vehicle>
    <vehicle id="veh118" depart="189.98" departLane="best" departPos="random" departSpeed="max">
        <route edges="223632520#2 -E2 -649064895 E4 -258728090#3 -649064896#1"/>
    </vehicle>
    <vehicle id="veh119" depart="191.59" departLane="best" departPos="random" departSpeed="max">
        <route edges="649064895 -649064895 649064896#1 258728090#3 -E4"/>
    </vehicle>
    <vehicle id="veh121" depart="194.81" departLane="best" departPos="random" departSpeed="max">
        <route edges="223632517 -E3 -E2"/>
    </vehicle>
    <vehicle id="veh122" depart="196.42" departLane="best" departPos="random" departSpeed="max">
        <route edges="223632520#0 223632525#1 -258728090#4 -258728090#3 -258728090#2 223632517 -E3"/>
    </vehicle>
    <vehicle id="veh123" depart="198.03" departLane="best" departPos="random" departSpeed="max">
        <route edges="-223632526 -671642282 258728090#0 223632517 -E3 -E2"/>
    </vehicle>
    <vehicle id="veh125" depart="201.25" departLane="best" departPos="random" departSpeed="max">
        <route edges="258728090#3 -E4 649064896#1"/>
    </vehicle>
    <vehicle id="veh126" depart="202.86" departLane="best" departPos="random" departSpeed="max">
        <route edges="223632525#1 -E1 649036317#3"/>
    </vehicle>
    <vehicle id="veh127" depart="204.47" departLane="best" departPos="random" departSpeed="max">
        <route edges="-E2 -649064895 649064895 E2 E3 649040853#1 649040853#2"/>
    </vehicle>
    <vehicle id="veh128" depart="206.08" departLane="best" departPos="random" departSpeed="max">
        <route edges="223632520#0 223632525#1 -258728090#4 -258728090#3 -258728090#2 223632517"/>
    </vehicle>
    <vehicle id="veh130" depart="209.30" departLane="best" departPos="random" departSpeed="max">
        <route edges="E4 258728090#4 -223632525#2 -223632525#0"/>
    </vehicle>
    <vehicle id="veh131" depart="210.91" departLane="best" departPos="random" departSpeed="max">
        <route edges="223632522 -649040853#1 -E3 -E2 -649064895 E4 258728090#4 -223632525#2 223632520#1"/>
    </vehicle>
    <vehicle id="veh132" depart="212.52" departLane="best" departPos="random" departSpeed="max">
        <route edges="E1 -258728090#4 -E4 649064895 E2 E3 649040853#1 649040853#2"/>
    </vehicle>
    <vehicle id="veh133" depart="214.13" departLane="best" departPos="random" departSpeed="max">
        <route edges="223632520#1"/>
    </vehicle>
    <vehicle id="veh134" depart="215.74" departLane="best" departPos="random" departSpeed="max">
        <route edges="E1 -258728090#4 -E4 649064895 E2 E3 649040853#1"/>
    </vehicle>
    <vehicle id="veh135" depart="217.35" departLane="best" departPos="random" departSpeed="max">
        <route edges="-649064896#1 649064896#1 -258728090#2 223632517"/>
    </vehicle>
    <vehicle id="veh136" depart="218.96" departLane="best" departPos="random" departSpeed="max">
        <route edges="223632517 -E3 -E2 -649064895 649064896#1 -258728090#2 -258728090#0 671642282"/>
    </vehicle>
    <vehicle id="veh137" depart="220.57" departLane="best" departPos="random" departSpeed="max">
        <route edges="223632522 -649040853#1 -E3"/>
    </vehicle>
    <vehicle id="veh138" depart="222.18" departLane="best" departPos="random" departSpeed="max">
        <route edges="-649064895 E4 258728090#4 -E1 223632520#2"/>
    </vehicle>
    <vehicle id="veh139" depart="223.79" departLane="best" departPos="random" departSpeed="max">
        <route edges="223632522 -649040853#1 -E3 -E2 -649064895 E4 258728090#4 -E1 223632520#2"/>
    </vehicle>
    <vehicle id="veh140" depart="225.40" departLane="best" departPos="random" departSpeed="max">
        <route edges="223632525#1 -258728090#4 -258728090#3"/>
    </vehicle>
    <vehicle id="veh141" depart="227.01" departLane="best" departPos="random" departSpeed="max">
        <route edges="-649064896#1 649064895 E2 -223632520#2 -223632520#1 223632525#1"/>
    </vehicle>
    <vehicle id="veh142" depart="228.62" departLane="best" departPos="random" departSpeed="max">
        <route edges="-671642282 258728090#0 223632517 -E3 -E2"/>
    </vehicle>
    <vehicle id="veh143" depart="230.23" departLane="best" departPos="random" departSpeed="max">
        <route edges="223632520#1 E1 -258728090#4"/>
    </vehicle>
    <vehicle id="veh145" depart="233.45" departLane="best" departPos="random" departSpeed="max">
        <route edges="E4 258728090#4 -E1 -223632520#1 223632525#1"/>
    </vehicle>
    <vehicle id="veh146" depart="235.06" departLane="best" departPos="random" departSpeed="max">
        <route edges="223632520#0 223632525#1 -258728090#4 -258728090#3 -258728090#2"/>
    </vehicle>
    <vehicle id="veh147" depart="236.67" departLane="best" departPos="random" departSpeed="max">
        <route edges="-258728090#4 -E4 649064895 E2 E3 -223632517"/>
    </vehicle>
    <vehicle id="veh148" depart="238.28" departLane="best" departPos="random" departSpeed="max">
        <route edges="223632525#1 -258728090#4 -E4 649064895 E2 E3 -223632517"/>
    </vehicle>
    <vehicle id="veh150" depart="241.50" departLane="best" departPos="random" departSpeed="max">
        <route edges="258728090#4 -E1 223632520#2 E3 -223632517 -258728090#0 671642282"/>
    </vehicle>
    <vehicle id="veh151" depart="243.11" departLane="best" departPos="random" departSpeed="max">
        <route edges="223632517 -E3 -E2 -649064895 649064896#1 -258728090#2"/>
    </vehicle>
    <vehicle id="veh153" depart="246.33" departLane="best" departPos="random" departSpeed="max">
        <route edges="E4 -258728090#3 -258728090#2 223632517 -E3"/>
    </vehicle>
    <vehicle id="veh154" depart="247.94" departLane="best" departPos="random" departSpeed="max">
        <route edges="-649036317#3 E1 -258728090#4 -258728090#3 -258728090#2 223632517"/>
    </vehicle>
    <vehicle id="veh155" depart="249.55" departLane="best" departPos="random" departSpeed="max">
        <route edges="E4 258728090#4 -223632525#2 223632520#1 E1"/>
    </vehicle>
    <vehicle id="veh156" depart="251.16" departLane="best" departPos="random" departSpeed="max">
        <route edges="-258728090#2 223632517 -E3 -E2"/>
    </vehicle>
    <vehicle id="veh157" depart="252.77" departLane="best" departPos="random" departSpeed="max">
        <route edges="-649036317#3 223632520#2 -E2 -649064895 649064896#1 258728090#3"/>
    </vehicle>
    <vehicle id="veh158" depart="254.38" departLane="best" departPos="random" departSpeed="max">
        <route edges="-671642282 258728090#0 223632517 649040853#1 649040853#2"/>
    </vehicle>
    <vehicle id="veh159" depart="255.99" departLane="best" departPos="random" departSpeed="max">
        <route edges="-223632517 258728090#1 258728090#3 258728090#4 -223632525#2 -223632520#0"/>
    </vehicle>
    <vehicle id="veh160" depart="257.60" departLane="best" departPos="random" departSpeed="max">
        <route edges="-144943776 -649040853#1 -E3 -223632520#2 -223632520#1 223632525#1"/>
    </vehicle>
    <vehicle id="veh161" depart="259.21" departLane="best" departPos="random" departSpeed="max">
        <route edges="223632520#1 E1 -258728090#4 258728090#4 -E1 -223632520#1"/>
    </vehicle>
    <vehicle id="veh162" depart="260.82" departLane="best" departPos="random" departSpeed="max">
        <route edges="-671642282 258728090#0 258728090#1 -649064896#1 649064896#1"/>
    </vehicle>
    <vehicle id="veh163" depart="262.43" departLane="best" departPos="random" departSpeed="max">
        <route edges="E3 -223632517"/>
    </vehicle>
    <vehicle id="veh164" depart="264.04" departLane="best" departPos="random" departSpeed="max">
        <route edges="223632522 -649040853#1 -E3 -E2 -649064895 E4 258728090#4 -223632525#2 223632520#1"/>
    </vehicle>
    <vehicle id="veh165" depart="265.65" departLane="best" departPos="random" departSpeed="max">
        <route edges="-144943776 -649040853#1 -E3 -E2 -649064895 649064896#1 -258728090#2"/>
    </vehicle>
    <vehicle id="veh166" depart="267.26" departLane="best" departPos="random" departSpeed="max">
        <route edges="-223632525#2 223632520#1 E1 -258728090#4 -E4"/>
    </vehicle>
    <vehicle id="veh167" depart="268.87" departLane="best" departPos="random" departSpeed="max">
        <route edges="223632525#0 223632525#1 -258728090#4"/>
    </vehicle>
    <vehicle id="veh168" depart="270.48" departLane="best" departPos="random" departSpeed="max">
        <route edges="223632520#0 223632525#1 -258728090#4 -E4 649064895 E2 -223632520#2"/>
    </vehicle>
    <vehicle id="veh169" depart="272.09" departLane="best" departPos="random" departSpeed="max">
        <route edges="-649040853#1 -E3 -E2 -649064895 E4"/>
    </vehicle>
    <vehicle id="veh170" depart="273.70" departLane="best" departPos="random" departSpeed="max">
        <route edges="E2 -223632520#2 E1 -258728090#4 -E4 649064895 -649064895"/>
    </vehicle>
    <vehicle id="veh172" depart="276.92" departLane="best" departPos="random" departSpeed="max">
        <route edges="-223632517 258728090#1 258728090#3 258728090#4 -E1 649036317#3"/>
    </vehicle>
    <vehicle id="veh174" depart="280.14" departLane="best" departPos="random" departSpeed="max">
        <route edges="-649064896#1 649064895 E2"/>
    </vehicle>
    <vehicle id="veh177" depart="284.97" departLane="best" departPos="random" departSpeed="max">
        <route edges="-223632526 -671642282 258728090#0 258728090#1 -649064896#1 E4 -258728090#3"/>
    </vehicle>
    <vehicle id="veh179" depart="288.19" departLane="best" departPos="random" departSpeed="max">