<?xml version="1.0" encoding="UTF-8"?>

<!-- generated on 2025-05-11 05:14:02.311203 by randomTrips.py v1_22_0+0002-63e50f52594
<configuration>
    <net-file value="E:/licenta/oras-mic/2025-05-08-13-35-40\osm.net.xml"/>
    <output-trip-file value="E:/licenta/oras-mic/2025-05-08-13-35-40\trips.trips.xml"/>
    <route-file value="E:/licenta/oras-mic/2025-05-08-13-35-40\generated_routes\routes_worker2_5863db95.rou.xml"/>
    <prefix value="veh"/>
    <trip-attributes value="departLane=&quot;best&quot; departSpeed=&quot;max&quot; departPos=&quot;random&quot;"/>
    <fringe-factor value="2.4"/>
    <seed value="47505"/>
    <end value="600.0"/>
    <period value="1.96"/>
</configuration>
-->

<!-- generated on 2025-05-11 05:14:02 by Eclipse SUMO duarouter Version 1.22.0
<duarouterConfiguration xmlns:xsi="http://www.w3.org/2001/XMLSchema-instance" xsi:noNamespaceSchemaLocation="http://sumo.dlr.de/xsd/duarouterConfiguration.xsd">

    <input>
        <net-file value="E:/licenta/oras-mic/2025-05-08-13-35-40\osm.net.xml"/>
        <route-files value="E:/licenta/oras-mic/2025-05-08-13-35-40\trips.trips.xml"/>
    </input>

    <output>
        <output-file value="E:/licenta/oras-mic/2025-05-08-13-35-40\generated_routes\routes_worker2_5863db95.rou.xml"/>
        <alternatives-output value="NUL"/>
    </output>

    <time>
        <begin value="0"/>
        <end value="600.0"/>
    </time>

    <report>
        <no-warnings value="true"/>
        <ignore-errors value="true"/>
        <no-step-log value="true"/>
    </report>

</duarouterConfiguration>
-->

<routes xmlns:xsi="http://www.w3.org/2001/XMLSchema-instance" xsi:noNamespaceSchemaLocation="http://sumo.dlr.de/xsd/routes_file.xsd">
    <vehicle id="veh0" depart="0.00" departLane="best" departPos="random" departSpeed="max">
        <route edges="-258728090#2 223632517 649040853#1 -223632522"/>
    </vehicle>
    <vehicle id="veh1" depart="2.03" departLane="best" departPos="random" departSpeed="max">
        <route edges="-649064895 E4 258728090#4 -E1 649036317#3"/>
    </vehicle>
    <vehicle id="veh2" depart="4.06" departLane="best" departPos="random" departSpeed="max">
        <route edges="-671642282 258728090#0 223632517 -E3 -223632520#2 -223632520#1 -223632525#0"/>
    </vehicle>
    <vehicle id="veh3" depart="6.09" departLane="best" departPos="random" departSpeed="max">
        <route edges="649064896#1 258728090#3 -E4 649064895 E2 E3 649040853#1 649040853#2"/>
    </vehicle>
    <vehicle id="veh4" depart="8.12" departLane="best" departPos="random" departSpeed="max">
        <route edges="258728090#0 258728090#1 258728090#3"/>
    </vehicle>
    <vehicle id="veh5" depart="10.15" departLane="best" departPos="random" departSpeed="max">
        <route edges="-223632520#1 223632525#1 -258728090#4 258728090#4 -223632525#2 223632520#1 E1"/>
    </vehicle>
    <vehicle id="veh7" depart="14.21" departLane="best" departPos="random" departSpeed="max">
        <route edges="-223632520#1 223632525#1 -258728090#4 258728090#4 -223632525#2 223632520#1 E1"/>
    </vehicle>
    <vehicle id="veh8" depart="16.24" departLane="best" departPos="random" departSpeed="max">
        <route edges="-223632525#2 223632520#1 E1 -258728090#4"/>
    </vehicle>
    <vehicle id="veh10" depart="20.30" departLane="best" departPos="random" departSpeed="max">
        <route edges="-671642282 258728090#0 223632517 -E3 -223632520#2 649036317#3"/>
    </vehicle>
    <vehicle id="veh11" depart="22.33" departLane="best" departPos="random" departSpeed="max">
        <route edges="649064895 E2 -223632520#2"/>
    </vehicle>
    <vehicle id="veh12" depart="24.36" departLane="best" departPos="random" departSpeed="max">
        <route edges="-223632517 258728090#1 -649064896#1 649064895"/>
    </vehicle>
    <vehicle id="veh13" depart="26.39" departLane="best" departPos="random" departSpeed="max">
        <route edges="-E3 -223632520#2"/>
    </vehicle>
    <vehicle id="veh15" depart="30.45" departLane="best" departPos="random" departSpeed="max">
        <route edges="223632517 -E3 -E2 -649064895 E4 -258728090#3 -649064896#1"/>
    </vehicle>
    <vehicle id="veh16" depart="32.48" departLane="best" departPos="random" departSpeed="max">
        <route edges="-E3 -E2 -649064895 649064896#1 -258728090#2 -258728090#0 671642282 223632526"/>
    </vehicle>
    <vehicle id="veh17" depart="34.51" departLane="best" departPos="random" departSpeed="max">
        <route edges="223632525#0 223632520#1 223632520#2 E3 649040853#1 -223632522"/>
    </vehicle>
    <vehicle id="veh18" depart="36.54" departLane="best" departPos="random" departSpeed="max">
        <route edges="-223632526 -671642282 258728090#0 223632517 -E3 -E2 -649064895"/>
    </vehicle>
    <vehicle id="veh19" depart="38.57" departLane="best" departPos="random" departSpeed="max">
        <route edges="649064896#1 -258728090#2 -258728090#0 671642282 223632526"/>
    </vehicle>
    <vehicle id="veh21" depart="42.63" departLane="best" departPos="random" departSpeed="max">
        <route edges="-649064895 649064895 E2 -223632520#2"/>
    </vehicle>
    <vehicle id="veh22" depart="44.66" departLane="best" departPos="random" departSpeed="max">
        <route edges="E2 E3 649040853#1 -223632522"/>
    </vehicle>
    <vehicle id="veh23" depart="46.69" departLane="best" departPos="random" departSpeed="max">
        <route edges="223632525#0 223632525#1 -258728090#4 -258728090#3 -258728090#2 223632517 -E3"/>
    </vehicle>
    <vehicle id="veh24" depart="48.72" departLane="best" departPos="random" departSpeed="max">
        <route edges="-649064896#1 649064895 E2 -223632520#2 649036317#3"/>
    </vehicle>
    <vehicle id="veh25" depart="50.75" departLane="best" departPos="random" departSpeed="max">
        <route edges="-649064896#1 649064895 E2 E3 649040853#1"/>
    </vehicle>
    <vehicle id="veh26" depart="52.78" departLane="best" departPos="random" departSpeed="max">
        <route edges="649064896#1 -258728090#2 -258728090#0 671642282"/>
    </vehicle>
    <vehicle id="veh27" depart="54.81" departLane="best" departPos="random" departSpeed="max">
        <route edges="223632522 -649040853#1 -E3 -223632520#2 E1"/>
    </vehicle>
    <vehicle id="veh28" depart="56.84" departLane="best" departPos="random" departSpeed="max">
        <route edges="-E2 -649064895 649064896#1 -258728090#2 223632517"/>
    </vehicle>
    <vehicle id="veh29" depart="58.87" departLane="best" departPos="random" departSpeed="max">
        <route edges="-258728090#3 -649064896#1 E4 258728090#4 -E1"/>
    </vehicle>
    <vehicle id="veh30" depart="60.90" departLane="best" departPos="random" departSpeed="max">
        <route edges="649064896#1 258728090#3 -E4"/>
    </vehicle>
    <vehicle id="veh31" depart="62.93" departLane="best" departPos="random" departSpeed="max">
        <route edges="-258728090#2 223632517 -E3 -E2 -649064895 E4 -258728090#3"/>
    </vehicle>
    <vehicle id="veh32" depart="64.96" departLane="best" departPos="random" departSpeed="max">
        <route edges="-E2 -649064895 649064895 E2 E3"/>
    </vehicle>
    <vehicle id="veh33" depart="66.99" departLane="best" departPos="random" departSpeed="max">
        <route edges="-258728090#3 -649064896#1 649064895"/>
    </vehicle>
    <vehicle id="veh34" depart="69.02" departLane="best" departPos="random" departSpeed="max">
        <route edges="-E3 -E2 -649064895 649064896#1 -258728090#2 -258728090#0"/>
    </vehicle>
    <vehicle id="veh35" depart="71.05" departLane="best" departPos="random" departSpeed="max">
        <route edges="258728090#1 -649064896#1 649064895 E2 E3 649040853#1"/>
    </vehicle>
    <vehicle id="veh36" depart="73.08" departLane="best" departPos="random" departSpeed="max">
        <route edges="649064895 E2 -223632520#2 -223632520#1 223632525#1"/>
    </vehicle>
    <vehicle id="veh37" depart="75.11" departLane="best" departPos="random" departSpeed="max">
        <route edges="-223632517 -258728090#0 671642282"/>
    </vehicle>
    <vehicle id="veh38" depart="77.14" departLane="best" departPos="random" departSpeed="max">
        <route edges="-223632520#2 E1 -223632525#2 223632520#1"/>
    </vehicle>
    <vehicle id="veh39" depart="79.17" departLane="best" departPos="random" departSpeed="max">
        <route edges="258728090#3 -E4 649064895 -649064895 E4"/>
    </vehicle>
    <vehicle id="veh41" depart="83.23" departLane="best" departPos="random" departSpeed="max">
        <route edges="258728090#1 258728090#3 258728090#4 -E1 223632520#2 -E2"/>
    </vehicle>
    <vehicle id="veh42" depart="85.26" departLane="best" departPos="random" departSpeed="max">
        <route edges="-671642282 258728090#0 258728090#1 -649064896#1 649064896#1 -258728090#2"/>
    </vehicle>
    <vehicle id="veh43" depart="87.29" departLane="best" departPos="random" departSpeed="max">
        <route edges="-649040853#1 -E3 -E2 -649064895 649064895 E2"/>
    </vehicle>
    <vehicle id="veh44" depart="89.32" departLane="best" departPos="random" departSpeed="max">
        <route edges="-E4 649064895 E2 -223632520#2 E1 -258728090#4"/>
    </vehicle>
    <vehicle id="veh45" depart="91.35" departLane="best" departPos="random" departSpeed="max">
        <route edges="E4 258728090#4 -E1 223632520#2 E3 649040853#1"/>
    </vehicle>
    <vehicle id="veh46" depart="93.38" departLane="best" departPos="random" departSpeed="max">
        <route edges="-649040853#1 -E3 -223632520#2 649036317#3"/>
    </vehicle>
    <vehicle id="veh47" depart="95.41" departLane="best" departPos="random" departSpeed="max">
        <route edges="-258728090#2 223632517 -E3 -E2 -649064895 649064895 E2 E3"/>
    </vehicle>
    <vehicle id="veh48" depart="97.44" departLane="best" departPos="random" departSpeed="max">
        <route edges="223632520#2 E3 -223632517 -258728090#0 671642282 223632526"/>
    </vehicle>
    <vehicle id="veh49" depart="99.47" departLane="best" departPos="random" departSpeed="max">
        <route edges="223632520#0 223632520#1 223632520#2 E3 -223632517 258728090#1"/>
    </vehicle>
    <vehicle id="veh50" depart="101.50" departLane="best" departPos="random" departSpeed="max">
        <route edges="-649064896#1 649064895 E2 -223632520#2 -223632520#1 223632525#1"/>
    </vehicle>
    <vehicle id="veh51" depart="103.53" departLane="best" departPos="random" departSpeed="max">
        <route edges="-E3 -223632520#2 E1 -258728090#4"/>
    </vehicle>
    <vehicle id="veh52" depart="105.56" departLane="best" departPos="random" departSpeed="max">
        <route edges="649064895 E2 -223632520#2 649036317#3"/>
    </vehicle>
    <vehicle id="veh53" depart="107.59" departLane="best" departPos="random" departSpeed="max">
        <route edges="223632522 -649040853#1 -E3 -E2 -649064895 E4 258728090#4 -E1 223632520#2"/>
    </vehicle>
    <vehicle id="veh54" depart="109.62" departLane="best" departPos="random" departSpeed="max">
        <route edges="E2 -223632520#2 E1 -258728090#4 -E4 649064896#1"/>
    </vehicle>
    <vehicle id="veh55" depart="111.65" departLane="best" departPos="random" departSpeed="max">
        <route edges="258728090#3 -E4"/>
    </vehicle>
    <vehicle id="veh56" depart="113.68" departLane="best" departPos="random" departSpeed="max">
        <route edges="649064895 -649064895 E4 258728090#4 -223632525#2"/>
    </vehicle>
    <vehicle id="veh57" depart="115.71" departLane="best" departPos="random" departSpeed="max">
        <route edges="223632517 -E3 -223632520#2 -223632520#1 -223632520#0"/>
    </vehicle>
    <vehicle id="veh58" depart="117.74" departLane="best" departPos="random" departSpeed="max">
        <route edges="-258728090#3 -258728090#2 -258728090#0 671642282 223632526"/>
    </vehicle>
    <vehicle id="veh60" depart="121.80" departLane="best" departPos="random" departSpeed="max">
        <route edges="223632520#2 E3 -223632517"/>
    </vehicle>
    <vehicle id="veh61" depart="123.83" departLane="best" departPos="random" departSpeed="max">
        <route edges="223632522 -649040853#1 -223632517 -258728090#0"/>
    </vehicle>
    <vehicle id="veh62" depart="125.86" departLane="best" departPos="random" departSpeed="max">
        <route edges="-223632520#2 E1 -258728090#4 -E4 649064895 E2 E3 649040853#1 -223632522"/>
    </vehicle>
    <vehicle id="veh63" depart="127.89" departLane="best" departPos="random" departSpeed="max">
        <route edges="-E2 -649064895 E4 -258728090#3 -649064896#1"/>
    </vehicle>
    <vehicle id="veh64" depart="129.92" departLane="best" departPos="random" departSpeed="max">
        <route edges="-223632517 258728090#1 258728090#3 258728090#4 -E1 -223632520#1"/>
    </vehicle>
    <vehicle id="veh65" depart="131.95" departLane="best" departPos="random" departSpeed="max">
        <route edges="-E1 -223632520#1 -223632525#0"/>
    </vehicle>
    <vehicle id="veh66" depart="133.98" departLane="best" departPos="random" departSpeed="max">
        <route edges="223632522 -649040853#1 -E3 -E2"/>
    </vehicle>
    <vehicle id="veh67" depart="136.01" departLane="best" departPos="random" departSpeed="max">
        <route edges="-671642282 258728090#0 223632517 649040853#1 -223632522"/>
    </vehicle>
    <vehicle id="veh68" depart="138.04" departLane="best" departPos="random" departSpeed="max">
        <route edges="-223632520#1 223632525#1 -258728090#4 -258728090#3"/>
    </vehicle>
    <vehicle id="veh69" depart="140.07" departLane="best" departPos="random" departSpeed="max">
        <route edges="-E4 649064895 E2 -223632520#2 -223632520#1"/>
    </vehicle>
    <vehicle id="veh70" depart="142.10" departLane="best" departPos="random" departSpeed="max">
        <route edges="223632520#1 223632520#2 E3 -223632517 -258728090#0 671642282 223632526"/>
    </vehicle>
    <vehicle id="veh71" depart="144.13" departLane="best" departPos="random" departSpeed="max">
        <route edges="-649040853#1 -E3 -E2 -649064895"/>
    </vehicle>
    <vehicle id="veh72" depart="146.16" departLane="best" departPos="random" departSpeed="max">
        <route edges="-223632520#1 223632525#1 -258728090#4 -E4 649064895 E2 -223632520#2"/>
    </vehicle>
    <vehicle id="veh74" depart="150.22" departLane="best" departPos="random" departSpeed="max">
        <route edges="-223632525#2 223632520#1 223632520#2 -E2 -649064895 649064896#1 258728090#3"/>
    </vehicle>
    <vehicle id="veh75" depart="152.25" departLane="best" departPos="random" departSpeed="max">
        <route edges="-649040853#1 -223632517 258728090#1"/>
    </vehicle>
    <vehicle id="veh76" depart="154.28" departLane="best" departPos="random" departSpeed="max">
        <route edges="223632520#2 -E2 -649064895 E4 -258728090#3"/>
    </vehicle>
    <vehicle id="veh77" depart="156.31" departLane="best" departPos="random" departSpeed="max">
        <route edges="-E3 -E2 -649064895 E4 258728090#4 -E1 223632520#2"/>
    </vehicle>
    <vehicle id="veh78" depart="158.34" departLane="best" departPos="random" departSpeed="max">
        <route edges="E1 -258728090#4 -E4 649064895 E2 E3 -223632517 258728090#1"/>
    </vehicle>
    <vehicle id="veh79" depart="160.37" departLane="best" departPos="random" departSpeed="max">
        <route edges="258728090#4 -E1 223632520#2 -E2 -649064895 649064895 E2 -223632520#2"/>
    </vehicle>
    <vehicle id="veh80" depart="162.40" departLane="best" departPos="random" departSpeed="max">
        <route edges="-649040853#1 -E3 -E2 -649064895 E4 258728090#4 -E1"/>
    </vehicle>
    <vehicle id="veh82" depart="166.46" departLane="best" departPos="random" departSpeed="max">
        <route edges="223632520#0 223632520#1 E1"/>
    </vehicle>
    <vehicle id="veh83" depart="168.49" departLane="best" departPos="random" departSpeed="max">
        <route edges="E3 -223632517 -258728090#0 671642282 223632526"/>
    </vehicle>
    <vehicle id="veh84" depart="170.52" departLane="best" departPos="random" departSpeed="max">
        <route edges="223632520#0 223632520#1 223632520#2 E3 -223632517 -258728090#0 671642282"/>
    </vehicle>
    <vehicle id="veh85" depart="172.55" departLane="best" departPos="random" departSpeed="max">
        <route edges="-E3 -E2 -649064895 649064895 E2 E3 -223632517"/>
    </vehicle>
    <vehicle id="veh86" depart="174.58" departLane="best" departPos="random" departSpeed="max">
        <route edges="-223632525#2 -223632525#0"/>
    </vehicle>
    <vehicle id="veh88" depart="178.64" departLane="best" departPos="random" departSpeed="max">
        <route edges="-E4 649064895 E2 E3 649040853#1"/>
    </vehicle>
    <vehicle id="veh89" depart="180.67" departLane="best" departPos="random" departSpeed="max">
        <route edges="223632520#1"/>
    </vehicle>
    <vehicle id="veh90" depart="182.70" departLane="best" departPos="random" departSpeed="max">
        <route edges="649064895 E2 E3 -223632517 258728090#1"/>
    </vehicle>
    <vehicle id="veh93" depart="188.79" departLane="best" departPos="random" departSpeed="max">
        <route edges="-223632526 -671642282 258728090#0 223632517"/>
    </vehicle>
    <vehicle id="veh94" depart="190.82" departLane="best" departPos="random" departSpeed="max">
        <route edges="223632520#0 223632525#1 -258728090#4 -258728090#3 -258728090#2"/>
    </vehicle>
    <vehicle id="veh95" depart="192.85" departLane="best" departPos="random" departSpeed="max">
        <route edges="-258728090#3 -649064896#1 E4 258728090#4 -223632525#2 223632520#1"/>
    </vehicle>
    <vehicle id="veh97" depart="196.91" departLane="best" departPos="random" departSpeed="max">
        <route edges="-223632526 -671642282 258728090#0 223632517 649040853#1"/>
    </vehicle>
    <vehicle id="veh98" depart="198.94" departLane="best" departPos="random" departSpeed="max">
        <route edges="258728090#4 -E1 223632520#2 E3 649040853#1"/>
    </vehicle>
    <vehicle id="veh100" depart="203.00" departLane="best" departPos="random" departSpeed="max">
        <route edges="-258728090#3 -649064896#1 E4 258728090#4 -E1 223632520#2"/>
    </vehicle>
    <vehicle id="veh101" depart="205.03" departLane="best" departPos="random" departSpeed="max">
        <route edges="258728090#4 -E1 223632520#2 E3 -223632517 -258728090#0"/>
    </vehicle>
    <vehicle id="veh102" depart="207.06" departLane="best" departPos="random" departSpeed="max">
        <route edges="258728090#3 258728090#4 -E1"/>
    </vehicle>
    <vehicle id="veh103" depart="209.09" departLane="best" departPos="random" departSpeed="max">
        <route edges="-223632526 -671642282 258728090#0 223632517 -E3 -223632520#2 E1 -258728090#4"/>
    </vehicle>
    <vehicle id="veh104" depart="211.12" departLane="best" departPos="random" departSpeed="max">
        <route edges="-E2 -649064895 E4 258728090#4 -E1"/>
    </vehicle>
    <vehicle id="veh105" depart="213.15" departLane="best" departPos="random" departSpeed="max">
        <route edges="E1 -258728090#4 258728090#4 -E1"/>
    </vehicle>
    <vehicle id="veh106" depart="215.18" departLane="best" departPos="random" departSpeed="max">
        <route edges="-649064896#1 649064895 E2 E3 649040853#1 -223632522"/>
    </vehicle>
    <vehicle id="veh107" depart="217.21" departLane="best" departPos="random" departSpeed="max">
        <route edges="258728090#1 -649064896#1 649064895"/>
    </vehicle>
    <vehicle id="veh108" depart="219.24" departLane="best" departPos="random" departSpeed="max">
        <route edges="-671642282 258728090#0 258728090#1 258728090#3"/>
    </vehicle>
    <vehicle id="veh109" depart="221.27" departLane="best" departPos="random" departSpeed="max">
        <route edges="-E4 649064896#1 258728090#3 258728090#4 -E1 223632520#2 -E2"/>
    </vehicle>
    <vehicle id="veh111" depart="225.33" departLane="best" departPos="random" departSpeed="max">
        <route edges="-649036317#3 E1 -258728090#4 258728090#4"/>
    </vehicle>
    <vehicle id="veh112" depart="227.36" departLane="best" departPos="random" departSpeed="max">
        <route edges="E1 -258728090#4 -E4 649064895 -649064895"/>
    </vehicle>
    <vehicle id="veh113" depart="229.39" departLane="best" departPos="random" departSpeed="max">
        <route edges="258728090#1 258728090#3 258728090#4 -223632525#2 223632520#1"/>
    </vehicle>
    <vehicle id="veh114" depart="231.42" departLane="best" departPos="random" departSpeed="max">
        <route edges="223632525#0 223632525#1 -258728090#4 -E4 649064895"/>
    </vehicle>
    <vehicle id="veh115" depart="233.45" departLane="best" departPos="random" departSpeed="max">
        <route edges="-223632517 258728090#1 258728090#3 258728090#4 -E1 223632520#2 -E2"/>
    </vehicle>
    <vehicle id="veh118" depart="239.54" departLane="best" departPos="random" departSpeed="max">
        <route edges="-649036317#3 223632520#2"/>
    </vehicle>
    <vehicle id="veh120" depart="243.60" departLane="best" departPos="random" departSpeed="max">
        <route edges="E4 -258728090#3 -258728090#2 -258728090#0 671642282"/>
    </vehicle>
    <vehicle id="veh121" depart="245.63" departLane="best" departPos="random" departSpeed="max">
        <route edges="649064896#1 258728090#3 -E4 649064895 E2 E3 649040853#1 649040853#2"/>
    </vehicle>
    <vehicle id="veh122" depart="247.66" departLane="best" departPos="random" departSpeed="max">
        <route edges="223632520#2 -E2 -649064895 E4 -258728090#3"/>
    </vehicle>
    <vehicle id="veh123" depart="249.69" departLane="best" departPos="random" departSpeed="max">
        <route edges="-258728090#0 671642282 223632526"/>
    </vehicle>
    <vehicle id="veh124" depart="251.72" departLane="best" departPos="random" departSpeed="max">
        <route edges="258728090#3 -E4 649064896#1 -258728090#2 -258728090#0 671642282 223632526"/>
    </vehicle>
    <vehicle id="veh125" depart="253.75" departLane="best" departPos="random" departSpeed="max">
        <route edges="E3 -223632517 258728090#1 -649064896#1"/>
    </vehicle>
    <vehicle id="veh126" depart="255.78" departLane="best" departPos="random" departSpeed="max">
        <route edges="-E3 -223632520#2 E1"/>
    </vehicle>
    <vehicle id="veh128" depart="259.84" departLane="best" departPos="random" departSpeed="max">
        <route edges="223632517 -E3 -E2 -649064895 E4 258728090#4 -E1 223632520#2"/>
    </vehicle>
    <vehicle id="veh129" depart="261.87" departLane="best" departPos="random" departSpeed="max">
        <route edges="-144943776 -649040853#1 -E3 -E2 -649064895"/>
    </vehicle>
    <vehicle id="veh130" depart="263.90" departLane="best" departPos="random" departSpeed="max">
        <route edges="-649040853#1 -E3 -223632520#2 649036317#3"/>
    </vehicle>
    <vehicle id="veh131" depart="265.93" departLane="best" departPos="random" departSpeed="max">
        <route edges="E3 -223632517 258728090#1 -649064896#1 649064895 -649064895"/>
    </vehicle>
    <vehicle id="veh132" depart="267.96" departLane="best" departPos="random" departSpeed="max">
        <route edges="-258728090#2 223632517 -E3 -223632520#2"/>
    </vehicle>
    <vehicle id="veh133" depart="269.99" departLane="best" departPos="random" departSpeed="max">
        <route edges="223632525#0 223632520#1 223632520#2 -E2 -649064895"/>
    </vehicle>
    <vehicle id="veh134" depart="272.02" departLane="best" departPos="random" departSpeed="max">
        <route edges="-223632526 -671642282 258728090#0 258728090#1 258728090#3 258728090#4"/>
    </vehicle>
    <vehicle id="veh136" depart="276.08" departLane="best" departPos="random" departSpeed="max">
        <route edges="-223632520#1 223632525#1 -258728090#4 -E4 649064895 E2 E3 649040853#1 -223632522"/>
    </vehicle>
    <vehicle id="veh137" depart="278.11" departLane="best" departPos="random" departSpeed="max">
        <route edges="223632525#0 223632520#1 223632520#2 E3"/>
    </vehicle>
    <vehicle id="veh138" depart="280.14" departLane="best" departPos="random" departSpeed="max">
        <route edges="-E2 -649064895 649064896#1 -258728090#2 223632517"/>
    </vehicle>
    <vehicle id="veh139" depart="282.17" departLane="best" departPos="random" departSpeed="max">
        <route edges="223632525#1 -258728090#4 -E4 649064895 E2 E3 649040853#1 649040853#2"/>
    </vehicle>
    <vehicle id="veh140" depart="284.20" departLane="best" departPos="random" departSpeed="max">
        <route edges="223632525#0 223632525#1 -258728090#4 -E4"/>
    </vehicle>
    <vehicle id="veh141" depart="286.23" departLane="best" departPos="random" departSpeed="max">
        <route edges="223632525#0 223632525#1 -258728090#4 -258728090#3 -258728090#2 223632517 -E3"/>
    </vehicle>
    <vehicle id="veh142" depart="288.26" departLane="best" departPos="random" departSpeed="max">
        <route edges="649064896#1 258728090#3 258728090#4 -E1 649036317#3"/>
    </vehicle>
    <vehicle id="veh143" depart="290.29" departLane="best" departPos="random" departSpeed="max">
        <route edges="-258728090#4 258728090#4 -E1"/>
    </vehicle>
    <vehicle id="veh145" depart="294.35" departLane="best" departPos="random" departSpeed="max">
        <route edges="E4 -258728090#3 -258728090#2 223632517"/>
    </vehicle>
    <vehicle id="veh146" depart="296.38" departLane="best" departPos="random" departSpeed="max">
        <route edges="-E1 223632520#2 -E2 -649064895 649064895 E2 -223632520#2"/>
    </vehicle>
    <vehicle id="veh147" depart="298.41" departLane="best" departPos="random" departSpeed="max">
        <route edges="-223632520#2 -223632520#1 223632525#1 -E1"/>
    </vehicle>
    <vehicle id="veh148" depart="300.44" departLane="best" departPos="random" departSpeed="max">
        <route edges="223632525#0 223632525#1 -258728090#4 -258728090#3 -258728090#2 223632517"/>
    </vehicle>
    <vehicle id="veh149" depart="302.47" departLane="best" departPos="random" departSpeed="max">
        <route edges="223632525#1 -E1 -223632520#1 -223632520#0"/>
    </vehicle>
    <vehicle id="veh150" depart="304.50" departLane="best" departPos="random" departSpeed="max">
        <route edges="E2 -223632520#2 E1 -223632525#2 223632520#1 223632520#2 -E2"/>
    </vehicle>
    <vehicle id="veh153" depart="310.59" departLane="best" departPos="random" departSpeed="max">
        <route edges="223632520#0 223632520#1 E1 -223632525#2 -223632520#0"/>
    </vehicle>
    <vehicle id="veh154" depart="312.62" departLane="best" departPos="random" departSpeed="max">
        <route edges="-258728090#2 -258728090#0"/>
    </vehicle>
    <vehicle id="veh155" depart="314.65" departLane="best" departPos="random" departSpeed="max">
        <route edges="-E2 -649064895 649064896#1 258728090#3 -E4"/>
    </vehicle>
    <vehicle id="veh156" depart="316.68" departLane="best" departPos="random" departSpeed="max">
        <route edges="-223632517 258728090#1 -649064896#1 649064896#1 -258728090#2 223632517 -E3"/>
    </vehicle>
    <vehicle id="veh157" depart="318.71" departLane="best" departPos="random" departSpeed="max">
        <route edges="-223632520#1 223632525#1 -258728090#4 -E4 649064895 E2 -223632520#2"/>
    </vehicle>
    <vehicle id="veh159" depart="322.77" departLane="best" departPos="random" departSpeed="max">
        <route edges="E3 -223632517 258728090#1 -649064896#1 649064895"/>
    </vehicle>
    <vehicle id="veh161" depart="326.83" departLane="best" departPos="random" departSpeed="max">
        <route edges="258728090#0 258728090#1 258728090#3 258728090#4 -E1"/>
    </vehicle>
    <vehicle id="veh162" depart="328.86" departLane="best" departPos="random" departSpeed="max">
        <route edges="258728090#0 223632517 -E3 -E2"/>
    </vehicle>
    <vehicle id="veh163" depart="330.89" departLane="best" departPos="random" departSpeed="max">
        <route edges="-223632520#1 223632525#1 -258728090#4 258728090#4"/>
    </vehicle>
    <vehicle id="veh164" depart="332.92" departLane="best" departPos="random" departSpeed="max">
        <route edges="-E3 -223632520#2 E1"/>
    </vehicle>
    <vehicle id="veh165" depart="334.95" departLane="best" departPos="random" departSpeed="max">
        <route edges="-223632520#2 -223632520#1 -223632525#0"/>
    </vehicle>
    <vehicle id="veh166" depart="336.98" departLane="best" departPos="random" departSpeed="max">
        <route edges="-E1 223632520#2 E3 -223632517 -258728090#0 671642282 223632526"/>
    </vehicle>
    <vehicle id="veh167" depart="339.01" departLane="best" departPos="random" departSpeed="max">
        <route edges="-E1 223632520#2 E3 -223632517"/>
    </vehicle>
    <vehicle id="veh168" depart="341.04" departLane="best" departPos="random" departSpeed="max">
        <route edges="-649064895 E4 258728090#4 -E1 -223632520#1 223632525#1"/>
    </vehicle>
    <vehicle id="veh170" depart="345.10" departLane="best" departPos="random" departSpeed="max">
        <route edges="-649036317#3 E1 -223632525#2 223632520#1"/>
    </vehicle>
    <vehicle id="veh171" depart="347.13" departLane="best" departPos="random" departSpeed="max">
        <route edges="-258728090#4 -258728090#3 -258728090#2 223632517"/>
    </vehicle>
    <vehicle id="veh172" depart="349.16" departLane="best" departPos="random" departSpeed="max">
        <route edges="-E2 -649064895"/>
    </vehicle>
    <vehicle id="veh173" depart="351.19" departLane="best" departPos="random" departSpeed="max">
        <route edges="-223632520#2 -223632520#1 223632525#1"/>
    </vehicle>
    <vehicle id="veh175" depart="355.25" departLane="best" departPos="random" departSpeed="max">
        <route edges="-223632517 258728090#1 -649064896#1 649064895 E2 -223632520#2 E1 -258728090#4"/>
    </vehicle>
    <vehicle id="veh176" depart="357.28" departLane="best" departPos="random" departSpeed="max">
        <route edges="E3 -223632517 258728090#1 258728090#3 -E4"/>
    </vehicle>
    <vehicle id="veh177" depart="359.31" departLane="best" departPos="random" departSpeed="max">
        <route edges="E2 E3 -223632517 258728090#1 258728090#3"/>
    </vehicle>
    <vehicle id="veh178" depart="361.34" departLane="best" departPos="random" departSpeed="max">