<?xml version="1.0" encoding="UTF-8"?>

<!-- generated on 2025-05-11 04:34:45.731241 by randomTrips.py v1_22_0+0002-63e50f52594
<configuration>
    <net-file value="E:/licenta/oras-mic/2025-05-08-13-35-40\osm.net.xml"/>
    <output-trip-file value="E:/licenta/oras-mic/2025-05-08-13-35-40\trips.trips.xml"/>
    <route-file value="E:/licenta/oras-mic/2025-05-08-13-35-40\generated_routes\routes_worker0_758c6824.rou.xml"/>
    <prefix value="veh"/>
    <trip-attributes value="departLane=&quot;best&quot; departSpeed=&quot;max&quot; departPos=&quot;random&quot;"/>
    <fringe-factor value="1.2"/>
    <seed value="3609"/>
    <end value="600.0"/>
    <period value="1.83"/>
</configuration>
-->

<!-- generated on 2025-05-11 04:34:45 by Eclipse SUMO duarouter Version 1.22.0
<duarouterConfiguration xmlns:xsi="http://www.w3.org/2001/XMLSchema-instance" xsi:noNamespaceSchemaLocation="http://sumo.dlr.de/xsd/duarouterConfiguration.xsd">

    <input>
        <net-file value="E:/licenta/oras-mic/2025-05-08-13-35-40\osm.net.xml"/>
        <route-files value="E:/licenta/oras-mic/2025-05-08-13-35-40\trips.trips.xml"/>
    </input>

    <output>
        <output-file value="E:/licenta/oras-mic/2025-05-08-13-35-40\generated_routes\routes_worker0_758c6824.rou.xml"/>
        <alternatives-output value="NUL"/>
    </output>

    <time>
        <begin value="0"/>
        <end value="600.0"/>
    </time>

    <report>
        <no-warnings value="true"/>
        <ignore-errors value="true"/>
        <no-step-log value="true"/>
    </report>

</duarouterConfiguration>
-->

<routes xmlns:xsi="http://www.w3.org/2001/XMLSchema-instance" xsi:noNamespaceSchemaLocation="http://sumo.dlr.de/xsd/routes_file.xsd">
    <vehicle id="veh0" depart="0.00" departLane="best" departPos="random" departSpeed="max">
        <route edges="-223632526 -671642282 258728090#0 223632517 649040853#1 649040853#2"/>
    </vehicle>
    <vehicle id="veh1" depart="2.04" departLane="best" departPos="random" departSpeed="max">
        <route edges="-223632526 -671642282 258728090#0 223632517 -E3 -223632520#2"/>
    </vehicle>
    <vehicle id="veh2" depart="4.08" departLane="best" departPos="random" departSpeed="max">
        <route edges="-258728090#3 -649064896#1 649064895 E2 -223632520#2 E1 -258728090#4"/>
    </vehicle>
    <vehicle id="veh4" depart="8.16" departLane="best" departPos="random" departSpeed="max">
        <route edges="E1 -258728090#4 -258728090#3"/>
    </vehicle>
    <vehicle id="veh5" depart="10.20" departLane="best" departPos="random" departSpeed="max">
        <route edges="-223632517 -258728090#0 671642282 223632526"/>
    </vehicle>
    <vehicle id="veh6" depart="12.24" departLane="best" departPos="random" departSpeed="max">
        <route edges="-223632525#2 223632520#1 E1 -258728090#4 -258728090#3 -258728090#2"/>
    </vehicle>
    <vehicle id="veh7" depart="14.28" departLane="best" departPos="random" departSpeed="max">
        <route edges="-E3 -223632520#2 -223632520#1 -223632525#0"/>
    </vehicle>
    <vehicle id="veh8" depart="16.32" departLane="best" departPos="random" departSpeed="max">
        <route edges="649064896#1 258728090#3 258728090#4"/>
    </vehicle>
    <vehicle id="veh9" depart="18.36" departLane="best" departPos="random" departSpeed="max">
        <route edges="-649036317#3 E1 -258728090#4 -E4 649064895"/>
    </vehicle>
    <vehicle id="veh10" depart="20.40" departLane="best" departPos="random" departSpeed="max">
        <route edges="223632517 -E3 -E2 -649064895 649064895"/>
    </vehicle>
    <vehicle id="veh11" depart="22.44" departLane="best" departPos="random" departSpeed="max">
        <route edges="-E4 649064896#1 258728090#3"/>
    </vehicle>
    <vehicle id="veh12" depart="24.48" departLane="best" departPos="random" departSpeed="max">
        <route edges="258728090#1 -649064896#1 649064896#1"/>
    </vehicle>
    <vehicle id="veh13" depart="26.52" departLane="best" departPos="random" departSpeed="max">
        <route edges="649064895 E2 E3 -223632517 -258728090#0 671642282 223632526"/>
    </vehicle>
    <vehicle id="veh14" depart="28.56" departLane="best" departPos="random" departSpeed="max">
        <route edges="E3 -223632517 258728090#1 258728090#3 -E4"/>
    </vehicle>
    <vehicle id="veh15" depart="30.60" departLane="best" departPos="random" departSpeed="max">
        <route edges="258728090#3 -E4 649064895 -649064895 E4"/>
    </vehicle>
    <vehicle id="veh16" depart="32.64" departLane="best" departPos="random" departSpeed="max">
        <route edges="223632520#1 223632520#2 E3 -223632517 -258728090#0"/>
    </vehicle>
    <vehicle id="veh18" depart="36.72" departLane="best" departPos="random" departSpeed="max">
        <route edges="223632520#0 223632525#1 -258728090#4 -E4 649064895 E2 -223632520#2"/>
    </vehicle>
    <vehicle id="veh20" depart="40.80" departLane="best" departPos="random" departSpeed="max">
        <route edges="258728090#4 -E1 223632520#2 -E2 -649064895 649064895 E2"/>
    </vehicle>
    <vehicle id="veh21" depart="42.84" departLane="best" departPos="random" departSpeed="max">
        <route edges="E4 -258728090#3 -649064896#1 649064896#1 258728090#3"/>
    </vehicle>
    <vehicle id="veh23" depart="46.92" departLane="best" departPos="random" departSpeed="max">
        <route edges="-671642282 258728090#0 223632517 -E3"/>
    </vehicle>
    <vehicle id="veh24" depart="48.96" departLane="best" departPos="random" departSpeed="max">
        <route edges="-144943776 -649040853#1 -E3 -E2 -649064895 649064896#1 -258728090#2 223632517"/>
    </vehicle>
    <vehicle id="veh25" depart="51.00" departLane="best" departPos="random" departSpeed="max">
        <route edges="258728090#1 -649064896#1 649064895 E2"/>
    </vehicle>
    <vehicle id="veh26" depart="53.04" departLane="best" departPos="random" departSpeed="max">
        <route edges="-E3 -E2 -649064895 649064896#1 -258728090#2 -258728090#0 671642282"/>
    </vehicle>
    <vehicle id="veh27" depart="55.08" departLane="best" departPos="random" departSpeed="max">
        <route edges="-223632525#2 223632520#1 223632520#2 -E2 -649064895 649064895 E2"/>
    </vehicle>
    <vehicle id="veh28" depart="57.12" departLane="best" departPos="random" departSpeed="max">
        <route edges="-258728090#3 -649064896#1 649064895 E2 -223632520#2 E1"/>
    </vehicle>
    <vehicle id="veh29" depart="59.16" departLane="best" departPos="random" departSpeed="max">
        <route edges="-223632525#2 223632520#1 E1 -258728090#4 258728090#4 -E1 -223632520#1"/>
    </vehicle>
    <vehicle id="veh30" depart="61.20" departLane="best" departPos="random" departSpeed="max">
        <route edges="-649040853#1 -E3 -E2 -649064895 649064895 E2 E3"/>
    </vehicle>
    <vehicle id="veh31" depart="63.24" departLane="best" departPos="random" departSpeed="max">
        <route edges="223632525#0 223632525#1 -258728090#4 -E4 649064895"/>
    </vehicle>
    <vehicle id="veh32" depart="65.28" departLane="best" departPos="random" departSpeed="max">
        <route edges="223632525#1 -E1 -223632520#1 -223632525#0"/>
    </vehicle>
    <vehicle id="veh33" depart="67.32" departLane="best" departPos="random" departSpeed="max">
        <route edges="-223632526 -671642282 258728090#0 258728090#1 -649064896#1 649064896#1 -258728090#2 -258728090#0 671642282 223632526"/>
    </vehicle>
    <vehicle id="veh34" depart="69.36" departLane="best" departPos="random" departSpeed="max">
        <route edges="-671642282"/>
    </vehicle>
    <vehicle id="veh35" depart="71.40" departLane="best" departPos="random" departSpeed="max">
        <route edges="258728090#4 -E1 223632520#2 -E2 -649064895 649064896#1 -258728090#2"/>
    </vehicle>
    <vehicle id="veh36" depart="73.44" departLane="best" departPos="random" departSpeed="max">
        <route edges="649064895 E2 E3 649040853#1 -223632522"/>
    </vehicle>
    <vehicle id="veh37" depart="75.48" departLane="best" departPos="random" departSpeed="max">
        <route edges="223632522 -649040853#1 -E3 -223632520#2 E1"/>
    </vehicle>
    <vehicle id="veh39" depart="79.56" departLane="best" departPos="random" departSpeed="max">
        <route edges="-E4 649064895 E2"/>
    </vehicle>
    <vehicle id="veh40" depart="81.60" departLane="best" departPos="random" departSpeed="max">
        <route edges="223632520#2 -E2 -649064895 649064896#1"/>
    </vehicle>
    <vehicle id="veh42" depart="85.68" departLane="best" departPos="random" departSpeed="max">
        <route edges="E3 -223632517 258728090#1 258728090#3 258728090#4 -223632525#2 -223632520#0"/>
    </vehicle>
    <vehicle id="veh43" depart="87.72" departLane="best" departPos="random" departSpeed="max">
        <route edges="-258728090#3 -258728090#2"/>
    </vehicle>
    <vehicle id="veh44" depart="89.76" departLane="best" departPos="random" departSpeed="max">
        <route edges="-E3 -E2 -649064895 649064896#1"/>
    </vehicle>
    <vehicle id="veh45" depart="91.80" departLane="best" departPos="random" departSpeed="max">
        <route edges="-223632525#2 223632520#1 223632520#2 E3 -223632517 258728090#1"/>
    </vehicle>
    <vehicle id="veh46" depart="93.84" departLane="best" departPos="random" departSpeed="max">
        <route edges="E1 -258728090#4 -E4 649064895"/>
    </vehicle>
    <vehicle id="veh47" depart="95.88" departLane="best" departPos="random" departSpeed="max">
        <route edges="E2 E3 -223632517 -258728090#0"/>
    </vehicle>
    <vehicle id="veh48" depart="97.92" departLane="best" departPos="random" departSpeed="max">
        <route edges="-E2 -649064895 649064896#1 -258728090#2 223632517 -E3"/>
    </vehicle>
    <vehicle id="veh50" depart="102.00" departLane="best" departPos="random" departSpeed="max">
        <route edges="-258728090#2 223632517 -E3 -E2 -649064895 E4 258728090#4"/>
    </vehicle>
    <vehicle id="veh51" depart="104.04" departLane="best" departPos="random" departSpeed="max">
        <route edges="-223632525#2 -223632520#0"/>
    </vehicle>
    <vehicle id="veh52" depart="106.08" departLane="best" departPos="random" departSpeed="max">
        <route edges="-649040853#1 -E3 -223632520#2 -223632520#1"/>
    </vehicle>
    <vehicle id="veh53" depart="108.12" departLane="best" departPos="random" departSpeed="max">
        <route edges="-E3 -223632520#2 649036317#3"/>
    </vehicle>
    <vehicle id="veh54" depart="110.16" departLane="best" departPos="random" departSpeed="max">
        <route edges="-144943776 -649040853#1 -E3 -223632520#2 -223632520#1 -223632525#0"/>
    </vehicle>
    <vehicle id="veh55" depart="112.20" departLane="best" departPos="random" departSpeed="max">
        <route edges="223632520#2 E3 -223632517 -258728090#0 671642282 223632526"/>
    </vehicle>
    <vehicle id="veh57" depart="116.28" departLane="best" departPos="random" departSpeed="max">
        <route edges="-649036317#3 E1 -258728090#4 -E4 649064895"/>
    </vehicle>
    <vehicle id="veh58" depart="118.32" departLane="best" departPos="random" departSpeed="max">
        <route edges="223632520#2 -E2 -649064895 E4 258728090#4 -223632525#2 -223632520#0"/>
    </vehicle>
    <vehicle id="veh59" depart="120.36" departLane="best" departPos="random" departSpeed="max">
        <route edges="-223632526 -671642282 258728090#0 258728090#1 -649064896#1 E4 -258728090#3"/>
    </vehicle>
    <vehicle id="veh60" depart="122.40" departLane="best" departPos="random" departSpeed="max">
        <route edges="-223632525#2 223632520#1 E1 -258728090#4 -258728090#3"/>
    </vehicle>
    <vehicle id="veh61" depart="124.44" departLane="best" departPos="random" departSpeed="max">
        <route edges="-649064896#1 E4 258728090#4 -223632525#2 -223632525#0"/>
    </vehicle>
    <vehicle id="veh62" depart="126.48" departLane="best" departPos="random" departSpeed="max">
        <route edges="-E2 -649064895 E4 258728090#4 -E1 223632520#2"/>
    </vehicle>
    <vehicle id="veh63" depart="128.52" departLane="best" departPos="random" departSpeed="max">
        <route edges="E1 -223632525#2 223632520#1 223632520#2"/>
    </vehicle>
    <vehicle id="veh64" depart="130.56" departLane="best" departPos="random" departSpeed="max">
        <route edges="-258728090#4 258728090#4 -223632525#2 223632520#1"/>
    </vehicle>
    <vehicle id="veh65" depart="132.60" departLane="best" departPos="random" departSpeed="max">
        <route edges="-649040853#1 -E3 -E2 -649064895 649064895 E2 E3 649040853#1 -223632522"/>
    </vehicle>
    <vehicle id="veh66" depart="134.64" departLane="best" departPos="random" departSpeed="max">
        <route edges="258728090#0 223632517 -E3 -E2 -649064895"/>
    </vehicle>
    <vehicle id="veh67" depart="136.68" departLane="best" departPos="random" departSpeed="max">
        <route edges="-144943776 -649040853#1 -E3 -E2 -649064895 649064895"/>
    </vehicle>
    <vehicle id="veh68" depart="138.72" departLane="best" departPos="random" departSpeed="max">
        <route edges="-223632526 -671642282 258728090#0 223632517 -E3 -223632520#2 -223632520#1 -223632525#0"/>
    </vehicle>
    <vehicle id="veh70" depart="142.80" departLane="best" departPos="random" departSpeed="max">
        <route edges="-649064895 649064895 E2 E3"/>
    </vehicle>
    <vehicle id="veh71" depart="144.84" departLane="best" departPos="random" departSpeed="max">
        <route edges="-223632526 -671642282 258728090#0 258728090#1 -649064896#1 649064896#1 -258728090#2 -258728090#0 671642282 223632526"/>
    </vehicle>
    <vehicle id="veh72" depart="146.88" departLane="best" departPos="random" departSpeed="max">
        <route edges="223632525#0 223632525#1 -258728090#4 -E4 649064895 E2 -223632520#2"/>
    </vehicle>
    <vehicle id="veh73" depart="148.92" departLane="best" departPos="random" departSpeed="max">
        <route edges="223632520#2 E3 -223632517 -258728090#0 671642282"/>
    </vehicle>
    <vehicle id="veh74" depart="150.96" departLane="best" departPos="random" departSpeed="max">
        <route edges="E1 -258728090#4"/>
    </vehicle>
    <vehicle id="veh75" depart="153.00" departLane="best" departPos="random" departSpeed="max">
        <route edges="223632520#0 223632525#1 -258728090#4 -258728090#3 -258728090#2 223632517"/>
    </vehicle>
    <vehicle id="veh76" depart="155.04" departLane="best" departPos="random" departSpeed="max">
        <route edges="-144943776 -649040853#1 -E3 -223632520#2 -223632520#1 -223632525#0"/>
    </vehicle>
    <vehicle id="veh77" depart="157.08" departLane="best" departPos="random" departSpeed="max">
        <route edges="-258728090#3 -649064896#1 E4 258728090#4 -223632525#2 -223632525#0"/>
    </vehicle>
    <vehicle id="veh79" depart="161.16" departLane="best" departPos="random" departSpeed="max">
        <route edges="258728090#0 223632517 -E3 -223632520#2 -223632520#1 -223632525#0"/>
    </vehicle>
    <vehicle id="veh80" depart="163.20" departLane="best" departPos="random" departSpeed="max">
        <route edges="223632525#1 -E1 -223632520#1 -223632520#0"/>
    </vehicle>
    <vehicle id="veh81" depart="165.24" departLane="best" departPos="random" departSpeed="max">
        <route edges="223632525#0 223632520#1 649036317#3"/>
    </vehicle>
    <vehicle id="veh82" depart="167.28" departLane="best" departPos="random" departSpeed="max">
        <route edges="-E4 649064895 E2 -223632520#2 -223632520#1 223632525#1"/>
    </vehicle>
    <vehicle id="veh83" depart="169.32" departLane="best" departPos="random" departSpeed="max">
        <route edges="-223632526 -671642282"/>
    </vehicle>
    <vehicle id="veh86" depart="175.44" departLane="best" departPos="random" departSpeed="max">
        <route edges="-649040853#1 -E3 -E2 -649064895 649064895"/>
    </vehicle>
    <vehicle id="veh88" depart="179.52" departLane="best" departPos="random" departSpeed="max">
        <route edges="-E3 -E2 -649064895 E4 258728090#4 -223632525#2"/>
    </vehicle>
    <vehicle id="veh89" depart="181.56" departLane="best" departPos="random" departSpeed="max">
        <route edges="-223632526 -671642282 258728090#0 258728090#1 -649064896#1 649064896#1 -258728090#2 -258728090#0"/>
    </vehicle>
    <vehicle id="veh91" depart="185.64" departLane="best" departPos="random" departSpeed="max">
        <route edges="E4 258728090#4 -E1"/>
    </vehicle>
    <vehicle id="veh92" depart="187.68" departLane="best" departPos="random" departSpeed="max">
        <route edges="-258728090#3 -649064896#1 649064895"/>
    </vehicle>
    <vehicle id="veh93" depart="189.72" departLane="best" departPos="random" departSpeed="max">
        <route edges="-144943776 -649040853#1 -E3 -E2 -649064895 E4 -258728090#3 -649064896#1"/>
    </vehicle>
    <vehicle id="veh95" depart="193.80" departLane="best" departPos="random" departSpeed="max">
        <route edges="223632520#1 223632520#2 -E2 -649064895 649064896#1"/>
    </vehicle>
    <vehicle id="veh96" depart="195.84" departLane="best" departPos="random" departSpeed="max">
        <route edges="223632522 -649040853#1 -E3"/>
    </vehicle>
    <vehicle id="veh98" depart="199.92" departLane="best" departPos="random" departSpeed="max">
        <route edges="258728090#1 258728090#3 258728090#4 -223632525#2 223632520#1"/>
    </vehicle>
</routes>
