<?xml version="1.0" encoding="UTF-8"?>

<!-- generated on 2025-05-11 05:48:49.014642 by randomTrips.py v1_22_0+0002-63e50f52594
<configuration>
    <net-file value="E:/licenta/oras-mic/2025-05-08-13-35-40\osm.net.xml"/>
    <output-trip-file value="E:/licenta/oras-mic/2025-05-08-13-35-40\trips.trips.xml"/>
    <route-file value="E:/licenta/oras-mic/2025-05-08-13-35-40\generated_routes\routes_worker0_fe789de1.rou.xml"/>
    <prefix value="veh"/>
    <trip-attributes value="departLane=&quot;best&quot; departSpeed=&quot;max&quot; departPos=&quot;random&quot;"/>
    <seed value="52053"/>
    <end value="600.0"/>
    <period value="2.5"/>
</configuration>
-->

<!-- generated on 2025-05-11 05:48:48 by Eclipse SUMO duarouter Version 1.22.0
<duarouterConfiguration xmlns:xsi="http://www.w3.org/2001/XMLSchema-instance" xsi:noNamespaceSchemaLocation="http://sumo.dlr.de/xsd/duarouterConfiguration.xsd">

    <input>
        <net-file value="E:/licenta/oras-mic/2025-05-08-13-35-40\osm.net.xml"/>
        <route-files value="E:/licenta/oras-mic/2025-05-08-13-35-40\trips.trips.xml"/>
    </input>

    <output>
        <output-file value="E:/licenta/oras-mic/2025-05-08-13-35-40\generated_routes\routes_worker0_fe789de1.rou.xml"/>
        <alternatives-output value="NUL"/>
    </output>

    <time>
        <begin value="0"/>
        <end value="600.0"/>
    </time>

    <report>
        <no-warnings value="true"/>
        <ignore-errors value="true"/>
        <no-step-log value="true"/>
    </report>

</duarouterConfiguration>
-->

<routes xmlns:xsi="http://www.w3.org/2001/XMLSchema-instance" xsi:noNamespaceSchemaLocation="http://sumo.dlr.de/xsd/routes_file.xsd">
    <vehicle id="veh0" depart="0.00" departLane="best" departPos="random" departSpeed="max">
        <route edges="-671642282 258728090#0 223632517 -E3 -223632520#2 E1 -258728090#4"/>
    </vehicle>
    <vehicle id="veh1" depart="1.97" departLane="best" departPos="random" departSpeed="max">
        <route edges="223632525#0 223632525#1 -258728090#4 258728090#4"/>
    </vehicle>
    <vehicle id="veh2" depart="3.94" departLane="best" departPos="random" departSpeed="max">
        <route edges="223632520#0 223632520#1 649036317#3"/>
    </vehicle>
    <vehicle id="veh3" depart="5.91" departLane="best" departPos="random" departSpeed="max">
        <route edges="223632520#0 223632525#1 -258728090#4 -E4 649064896#1 258728090#3"/>
    </vehicle>
    <vehicle id="veh4" depart="7.88" departLane="best" departPos="random" departSpeed="max">
        <route edges="-223632526 -671642282 258728090#0"/>
    </vehicle>
    <vehicle id="veh5" depart="9.85" departLane="best" departPos="random" departSpeed="max">
        <route edges="223632520#1 223632520#2 -E2 -649064895 649064895 E2"/>
    </vehicle>
    <vehicle id="veh8" depart="15.76" departLane="best" departPos="random" departSpeed="max">
        <route edges="258728090#0 223632517 649040853#1"/>
    </vehicle>
    <vehicle id="veh9" depart="17.73" departLane="best" departPos="random" departSpeed="max">
        <route edges="E2 -223632520#2 E1"/>
    </vehicle>
    <vehicle id="veh10" depart="19.70" departLane="best" departPos="random" departSpeed="max">
        <route edges="223632520#0 223632525#1 -258728090#4 -E4 649064895 E2 -223632520#2"/>
    </vehicle>
    <vehicle id="veh11" depart="21.67" departLane="best" departPos="random" departSpeed="max">
        <route edges="258728090#3 -E4 649064895 E2 E3 649040853#1 -223632522"/>
    </vehicle>
    <vehicle id="veh12" depart="23.64" departLane="best" departPos="random" departSpeed="max">
        <route edges="-E3 -E2 -649064895"/>
    </vehicle>
    <vehicle id="veh13" depart="25.61" departLane="best" departPos="random" departSpeed="max">
        <route edges="-223632525#2 223632520#1 223632520#2 E3 -223632517 -258728090#0"/>
    </vehicle>
    <vehicle id="veh14" depart="27.58" departLane="best" departPos="random" departSpeed="max">
        <route edges="-671642282"/>
    </vehicle>
    <vehicle id="veh16" depart="31.52" departLane="best" departPos="random" departSpeed="max">
        <route edges="-258728090#2 223632517 -E3 -E2"/>
    </vehicle>
    <vehicle id="veh17" depart="33.49" departLane="best" departPos="random" departSpeed="max">
        <route edges="258728090#3 258728090#4 -E1 649036317#3"/>
    </vehicle>
    <vehicle id="veh18" depart="35.46" departLane="best" departPos="random" departSpeed="max">
        <route edges="-649064896#1 649064895 E2 E3 -223632517"/>
    </vehicle>
    <vehicle id="veh19" depart="37.43" departLane="best" departPos="random" departSpeed="max">
        <route edges="-144943776 -649040853#1 -E3 -223632520#2 -223632520#1 223632525#1"/>
    </vehicle>
    <vehicle id="veh20" depart="39.40" departLane="best" departPos="random" departSpeed="max">
        <route edges="E2 -223632520#2 E1 -258728090#4 258728090#4"/>
    </vehicle>
    <vehicle id="veh21" depart="41.37" departLane="best" departPos="random" departSpeed="max">
        <route edges="-258728090#4 -258728090#3 -649064896#1 E4"/>
    </vehicle>
    <vehicle id="veh22" depart="43.34" departLane="best" departPos="random" departSpeed="max">
        <route edges="223632525#1 -258728090#4 -258728090#3 -649064896#1 E4"/>
    </vehicle>
    <vehicle id="veh23" depart="45.31" departLane="best" departPos="random" departSpeed="max">
        <route edges="258728090#1 258728090#3 258728090#4 -223632525#2"/>
    </vehicle>
    <vehicle id="veh24" depart="47.28" departLane="best" departPos="random" departSpeed="max">
        <route edges="-223632520#2 E1 -223632525#2 223632520#1 223632520#2 -E2"/>
    </vehicle>
    <vehicle id="veh26" depart="51.22" departLane="best" departPos="random" departSpeed="max">
        <route edges="-649064896#1 649064895 E2 -223632520#2 649036317#3"/>
    </vehicle>
    <vehicle id="veh27" depart="53.19" departLane="best" departPos="random" departSpeed="max">
        <route edges="649064896#1 258728090#3 258728090#4 -223632525#2 -223632520#0"/>
    </vehicle>
    <vehicle id="veh28" depart="55.16" departLane="best" departPos="random" departSpeed="max">
        <route edges="-223632520#1 223632525#1 -258728090#4 258728090#4 -223632525#2 223632520#1"/>
    </vehicle>
    <vehicle id="veh29" depart="57.13" departLane="best" departPos="random" departSpeed="max">
        <route edges="-144943776 -649040853#1 -223632517 -258728090#0 671642282"/>
    </vehicle>
    <vehicle id="veh30" depart="59.10" departLane="best" departPos="random" departSpeed="max">
        <route edges="-E2 -649064895 E4 258728090#4 -223632525#2 -223632525#0"/>
    </vehicle>
    <vehicle id="veh31" depart="61.07" departLane="best" departPos="random" departSpeed="max">
        <route edges="-223632517 258728090#1 258728090#3 258728090#4 -E1"/>
    </vehicle>
    <vehicle id="veh32" depart="63.04" departLane="best" departPos="random" departSpeed="max">
        <route edges="-258728090#2 -258728090#0 671642282 223632526"/>
    </vehicle>
    <vehicle id="veh33" depart="65.01" departLane="best" departPos="random" departSpeed="max">
        <route edges="E2 -223632520#2 E1 -258728090#4 -E4"/>
    </vehicle>
    <vehicle id="veh35" depart="68.95" departLane="best" departPos="random" departSpeed="max">
        <route edges="-649036317#3 223632520#2 -E2 -649064895"/>
    </vehicle>
    <vehicle id="veh36" depart="70.92" departLane="best" departPos="random" departSpeed="max">
        <route edges="258728090#3 258728090#4"/>
    </vehicle>
    <vehicle id="veh37" depart="72.89" departLane="best" departPos="random" departSpeed="max">
        <route edges="223632525#1 -258728090#4 -E4 649064896#1"/>
    </vehicle>
    <vehicle id="veh39" depart="76.83" departLane="best" departPos="random" departSpeed="max">
        <route edges="-671642282 258728090#0 223632517"/>
    </vehicle>
    <vehicle id="veh40" depart="78.80" departLane="best" departPos="random" departSpeed="max">
        <route edges="223632522 -649040853#1 -E3 -E2 -649064895 E4 258728090#4 -E1 223632520#2"/>
    </vehicle>
    <vehicle id="veh41" depart="80.77" departLane="best" departPos="random" departSpeed="max">
        <route edges="-649036317#3 E1 -258728090#4 -258728090#3 -258728090#2"/>
    </vehicle>
    <vehicle id="veh42" depart="82.74" departLane="best" departPos="random" departSpeed="max">
        <route edges="-258728090#3 -649064896#1 649064895 E2 -223632520#2"/>
    </vehicle>
    <vehicle id="veh43" depart="84.71" departLane="best" departPos="random" departSpeed="max">
        <route edges="258728090#3 258728090#4 -E1 223632520#2"/>
    </vehicle>
    <vehicle id="veh44" depart="86.68" departLane="best" departPos="random" departSpeed="max">
        <route edges="E3 -223632517 258728090#1 258728090#3 258728090#4 -E1 223632520#2 -E2"/>
    </vehicle>
    <vehicle id="veh45" depart="88.65" departLane="best" departPos="random" departSpeed="max">
        <route edges="223632525#1 -258728090#4 -258728090#3"/>
    </vehicle>
    <vehicle id="veh47" depart="92.59" departLane="best" departPos="random" departSpeed="max">
        <route edges="-E2 -649064895 E4 258728090#4 -223632525#2"/>
    </vehicle>
    <vehicle id="veh48" depart="94.56" departLane="best" departPos="random" departSpeed="max">
        <route edges="258728090#3 -E4 649064896#1 -258728090#2 -258728090#0 671642282 223632526"/>
    </vehicle>
    <vehicle id="veh49" depart="96.53" departLane="best" departPos="random" departSpeed="max">
        <route edges="-671642282 258728090#0 258728090#1 258728090#3 258728090#4 -E1"/>
    </vehicle>
    <vehicle id="veh50" depart="98.50" departLane="best" departPos="random" departSpeed="max">
        <route edges="-E2 -649064895 649064895 E2 E3 649040853#1 -223632522"/>
    </vehicle>
    <vehicle id="veh51" depart="100.47" departLane="best" departPos="random" departSpeed="max">
        <route edges="223632525#0 223632520#1 E1"/>
    </vehicle>
    <vehicle id="veh52" depart="102.44" departLane="best" departPos="random" departSpeed="max">
        <route edges="258728090#4 -E1 649036317#3"/>
    </vehicle>
    <vehicle id="veh53" depart="104.41" departLane="best" departPos="random" departSpeed="max">
        <route edges="E3 -223632517 -258728090#0 671642282 223632526"/>
    </vehicle>
    <vehicle id="veh54" depart="106.38" departLane="best" departPos="random" departSpeed="max">
        <route edges="649064896#1 258728090#3 -258728090#3 -649064896#1"/>
    </vehicle>
    <vehicle id="veh55" depart="108.35" departLane="best" departPos="random" departSpeed="max">
        <route edges="-258728090#4 -E4 649064895 E2 E3 -223632517"/>
    </vehicle>
    <vehicle id="veh56" depart="110.32" departLane="best" departPos="random" departSpeed="max">
        <route edges="649064895 E2 -223632520#2 -223632520#1 -223632525#0"/>
    </vehicle>
    <vehicle id="veh57" depart="112.29" departLane="best" departPos="random" departSpeed="max">
        <route edges="258728090#0 223632517 649040853#1 649040853#2"/>
    </vehicle>
    <vehicle id="veh58" depart="114.26" departLane="best" departPos="random" departSpeed="max">
        <route edges="-E1 223632520#2 -E2 -649064895 649064896#1 -258728090#2 223632517 -E3"/>
    </vehicle>
    <vehicle id="veh59" depart="116.23" departLane="best" departPos="random" departSpeed="max">
        <route edges="-258728090#2 223632517 -E3 -E2 -649064895 649064896#1"/>
    </vehicle>
    <vehicle id="veh60" depart="118.20" departLane="best" departPos="random" departSpeed="max">
        <route edges="258728090#3 258728090#4 -223632525#2 -223632520#0"/>
    </vehicle>
    <vehicle id="veh63" depart="124.11" departLane="best" departPos="random" departSpeed="max">
        <route edges="671642282 223632526"/>
    </vehicle>
    <vehicle id="veh64" depart="126.08" departLane="best" departPos="random" departSpeed="max">
        <route edges="-258728090#2 -258728090#0"/>
    </vehicle>
    <vehicle id="veh65" depart="128.05" departLane="best" departPos="random" departSpeed="max">
        <route edges="223632520#2 E3 -223632517 -258728090#0 671642282"/>
    </vehicle>
    <vehicle id="veh67" depart="131.99" departLane="best" departPos="random" departSpeed="max">
        <route edges="-671642282 258728090#0 223632517 649040853#1 -223632522"/>
    </vehicle>
    <vehicle id="veh69" depart="135.93" departLane="best" departPos="random" departSpeed="max">
        <route edges="223632517 -E3 -E2 -649064895 E4 258728090#4 -E1"/>
    </vehicle>
    <vehicle id="veh71" depart="139.87" departLane="best" departPos="random" departSpeed="max">
        <route edges="-223632526 -671642282 258728090#0 258728090#1 258728090#3 258728090#4 -E1"/>
    </vehicle>
    <vehicle id="veh72" depart="141.84" departLane="best" departPos="random" departSpeed="max">
        <route edges="-649064896#1 649064896#1 -258728090#2 -258728090#0 671642282 223632526"/>
    </vehicle>
    <vehicle id="veh73" depart="143.81" departLane="best" departPos="random" departSpeed="max">
        <route edges="649064896#1 258728090#3 258728090#4 -223632525#2 -223632525#0"/>
    </vehicle>
    <vehicle id="veh74" depart="145.78" departLane="best" departPos="random" departSpeed="max">
        <route edges="-258728090#4 258728090#4 -223632525#2 223632520#1"/>
    </vehicle>
    <vehicle id="veh75" depart="147.75" departLane="best" departPos="random" departSpeed="max">
        <route edges="E4 -258728090#3 -258728090#2 -258728090#0"/>
    </vehicle>
    <vehicle id="veh76" depart="149.72" departLane="best" departPos="random" departSpeed="max">
        <route edges="-144943776 -649040853#1 -E3"/>
    </vehicle>
    <vehicle id="veh77" depart="151.69" departLane="best" departPos="random" departSpeed="max">
        <route edges="223632517 649040853#1 -223632522"/>
    </vehicle>
    <vehicle id="veh78" depart="153.66" departLane="best" departPos="random" departSpeed="max">
        <route edges="223632517 -E3 -E2 -649064895 E4 258728090#4 -223632525#2 223632520#1"/>
    </vehicle>
    <vehicle id="veh79" depart="155.63" departLane="best" departPos="random" departSpeed="max">
        <route edges="-223632520#1 223632525#1 -258728090#4 258728090#4 -223632525#2 223632520#1"/>
    </vehicle>
    <vehicle id="veh80" depart="157.60" departLane="best" departPos="random" departSpeed="max">
        <route edges="-649036317#3 223632520#2 -E2 -649064895"/>
    </vehicle>
    <vehicle id="veh81" depart="159.57" departLane="best" departPos="random" departSpeed="max">
        <route edges="-223632526 -671642282 258728090#0 223632517 649040853#1 -223632522"/>
    </vehicle>
    <vehicle id="veh82" depart="161.54" departLane="best" departPos="random" departSpeed="max">
        <route edges="E1 -258728090#4 -E4 649064895 E2 E3 -223632517"/>
    </vehicle>
    <vehicle id="veh83" depart="163.51" departLane="best" departPos="random" departSpeed="max">
        <route edges="223632520#2 E3 -223632517 -258728090#0 671642282"/>
    </vehicle>
    <vehicle id="veh84" depart="165.48" departLane="best" departPos="random" departSpeed="max">
        <route edges="223632522 -649040853#1 -223632517 258728090#1"/>
    </vehicle>
    <vehicle id="veh85" depart="167.45" departLane="best" departPos="random" departSpeed="max">
        <route edges="223632517 -E3 -E2 -649064895 649064896#1 -258728090#2"/>
    </vehicle>
    <vehicle id="veh86" depart="169.42" departLane="best" departPos="random" departSpeed="max">
        <route edges="258728090#0 258728090#1 258728090#3 258728090#4 -E1 223632520#2"/>
    </vehicle>
    <vehicle id="veh87" depart="171.39" departLane="best" departPos="random" departSpeed="max">
        <route edges="223632520#0 -223632525#0"/>
    </vehicle>
    <vehicle id="veh88" depart="173.36" departLane="best" departPos="random" departSpeed="max">
        <route edges="-258728090#2 223632517 -E3"/>
    </vehicle>
    <vehicle id="veh89" depart="175.33" departLane="best" departPos="random" departSpeed="max">
        <route edges="-E3 -E2 -649064895 649064895"/>
    </vehicle>
    <vehicle id="veh90" depart="177.30" departLane="best" departPos="random" departSpeed="max">
        <route edges="223632520#0 223632520#1 223632520#2 E3 -223632517 -258728090#0 671642282"/>
    </vehicle>
    <vehicle id="veh91" depart="179.27" departLane="best" departPos="random" departSpeed="max">
        <route edges="E4 -258728090#3 -649064896#1 649064895 E2"/>
    </vehicle>
    <vehicle id="veh92" depart="181.24" departLane="best" departPos="random" departSpeed="max">
        <route edges="258728090#4 -E1 223632520#2 -E2 -649064895"/>
    </vehicle>
    <vehicle id="veh93" depart="183.21" departLane="best" departPos="random" departSpeed="max">
        <route edges="E4 258728090#4 -223632525#2"/>
    </vehicle>
    <vehicle id="veh94" depart="185.18" departLane="best" departPos="random" departSpeed="max">
        <route edges="-223632520#1 223632525#1 -258728090#4 -E4 649064895 E2 E3 -223632517"/>
    </vehicle>
    <vehicle id="veh95" depart="187.15" departLane="best" departPos="random" departSpeed="max">
        <route edges="258728090#3 -258728090#3"/>
    </vehicle>
    <vehicle id="veh96" depart="189.12" departLane="best" departPos="random" departSpeed="max">
        <route edges="-E2 -649064895 649064895 E2 -223632520#2 E1 -258728090#4"/>
    </vehicle>
    <vehicle id="veh97" depart="191.09" departLane="best" departPos="random" departSpeed="max">
        <route edges="-258728090#4 258728090#4 -223632525#2 -223632520#0"/>
    </vehicle>
    <vehicle id="veh98" depart="193.06" departLane="best" departPos="random" departSpeed="max">
        <route edges="-E3 -E2 -649064895 649064895 E2 E3 -223632517"/>
    </vehicle>
    <vehicle id="veh99" depart="195.03" departLane="best" departPos="random" departSpeed="max">
        <route edges="-223632526 -671642282 258728090#0 258728090#1 -649064896#1 E4 -258728090#3"/>
    </vehicle>
    <vehicle id="veh100" depart="197.00" departLane="best" departPos="random" departSpeed="max">
        <route edges="-649064895 649064895 E2 E3"/>
    </vehicle>
    <vehicle id="veh101" depart="198.97" departLane="best" departPos="random" departSpeed="max">
        <route edges="223632520#0 223632525#1"/>
    </vehicle>
    <vehicle id="veh102" depart="200.94" departLane="best" departPos="random" departSpeed="max">
        <route edges="-E1 223632520#2 -E2 -649064895 649064895 E2 -223632520#2"/>
    </vehicle>
    <vehicle id="veh103" depart="202.91" departLane="best" departPos="random" departSpeed="max">
        <route edges="223632517 -E3 -223632520#2 E1 -258728090#4"/>
    </vehicle>
    <vehicle id="veh104" depart="204.88" departLane="best" departPos="random" departSpeed="max">
        <route edges="-223632517 258728090#1 258728090#3 258728090#4 -E1"/>
    </vehicle>
    <vehicle id="veh106" depart="208.82" departLane="best" departPos="random" departSpeed="max">
        <route edges="223632517 -E3 -E2 -649064895 E4 258728090#4 -E1 223632520#2"/>
    </vehicle>
    <vehicle id="veh107" depart="210.79" departLane="best" departPos="random" departSpeed="max">
        <route edges="223632517 -E3 -E2 -649064895 649064895 E2"/>
    </vehicle>
    <vehicle id="veh108" depart="212.76" departLane="best" departPos="random" departSpeed="max">
        <route edges="-649040853#1 -E3 -E2 -649064895 E4 -258728090#3 -649064896#1"/>
    </vehicle>
    <vehicle id="veh109" depart="214.73" departLane="best" departPos="random" departSpeed="max">
        <route edges="258728090#4 -223632525#2"/>
    </vehicle>
    <vehicle id="veh110" depart="216.70" departLane="best" departPos="random" departSpeed="max">
        <route edges="223632520#0 223632525#1 -E1"/>
    </vehicle>
    <vehicle id="veh111" depart="218.67" departLane="best" departPos="random" departSpeed="max">
        <route edges="-E4 649064895 E2 E3"/>
    </vehicle>
    <vehicle id="veh112" depart="220.64" departLane="best" departPos="random" departSpeed="max">
        <route edges="-223632520#1 -223632520#0"/>
    </vehicle>
    <vehicle id="veh113" depart="222.61" departLane="best" departPos="random" departSpeed="max">
        <route edges="223632517 -E3 -E2 -649064895 649064896#1 -258728090#2 -258728090#0"/>
    </vehicle>
    <vehicle id="veh114" depart="224.58" departLane="best" departPos="random" departSpeed="max">
        <route edges="-649036317#3 E1 -258728090#4"/>
    </vehicle>
    <vehicle id="veh115" depart="226.55" departLane="best" departPos="random" departSpeed="max">
        <route edges="-649040853#1 -E3 -E2 -649064895 649064895 E2 E3"/>
    </vehicle>
    <vehicle id="veh116" depart="228.52" departLane="best" departPos="random" departSpeed="max">
        <route edges="-223632520#2 E1 -258728090#4 -E4 649064895 E2 E3 649040853#1"/>
    </vehicle>
    <vehicle id="veh118" depart="232.46" departLane="best" departPos="random" departSpeed="max">
        <route edges="223632520#1 223632520#2 -E2 -649064895 649064896#1 258728090#3"/>
    </vehicle>
    <vehicle id="veh120" depart="236.40" departLane="best" departPos="random" departSpeed="max">
        <route edges="-223632526 -671642282 258728090#0 223632517 649040853#1 649040853#2"/>
    </vehicle>
    <vehicle id="veh121" depart="238.37" departLane="best" departPos="random" departSpeed="max">
        <route edges="258728090#3 -E4"/>
    </vehicle>
    <vehicle id="veh123" depart="242.31" departLane="best" departPos="random" departSpeed="max">
        <route edges="223632520#1 223632520#2 -E2 -649064895 649064895 E2"/>
    </vehicle>
    <vehicle id="veh124" depart="244.28" departLane="best" departPos="random" departSpeed="max">
        <route edges="223632517 -E3 -223632520#2 E1 -258728090#4 -E4"/>
    </vehicle>
    <vehicle id="veh125" depart="246.25" departLane="best" departPos="random" departSpeed="max">
        <route edges="-649064896#1 E4 258728090#4 -E1 223632520#2"/>
    </vehicle>
    <vehicle id="veh126" depart="248.22" departLane="best" departPos="random" departSpeed="max">
        <route edges="223632520#0 223632520#1 223632520#2 E3 -223632517 258728090#1"/>
    </vehicle>
    <vehicle id="veh127" depart="250.19" departLane="best" departPos="random" departSpeed="max">
        <route edges="E4 258728090#4 -223632525#2 -223632520#0"/>
    </vehicle>
    <vehicle id="veh128" depart="252.16" departLane="best" departPos="random" departSpeed="max">
        <route edges="-649040853#1 -E3 -E2"/>
    </vehicle>
    <vehicle id="veh129" depart="254.13" departLane="best" departPos="random" departSpeed="max">
        <route edges="223632517 -E3 -223632520#2 E1 -258728090#4 -E4"/>
    </vehicle>
    <vehicle id="veh130" depart="256.10" departLane="best" departPos="random" departSpeed="max">
        <route edges="-649040853#1 -E3 -E2"/>
    </vehicle>
    <vehicle id="veh134" depart="263.98" departLane="best" departPos="random" departSpeed="max">
        <route edges="223632525#1 -E1 -223632520#1 -223632520#0"/>
    </vehicle>
    <vehicle id="veh135" depart="265.95" departLane="best" departPos="random" departSpeed="max">
        <route edges="223632522 -649040853#1"/>
    </vehicle>
    <vehicle id="veh136" depart="267.92" departLane="best" departPos="random" departSpeed="max">
        <route edges="223632525#0 223632520#1 223632520#2 E3 649040853#1 -223632522"/>
    </vehicle>
    <vehicle id="veh137" depart="269.89" departLane="best" departPos="random" departSpeed="max">
        <route edges="649040853#1 649040853#2"/>
    </vehicle>
    <vehicle id="veh138" depart="271.86" departLane="best" departPos="random" departSpeed="max">
        <route edges="223632520#2 -E2 -649064895 649064895"/>
    </vehicle>
    <vehicle id="veh139" depart="273.83" departLane="best" departPos="random" departSpeed="max">
        <route edges="223632520#2"/>
    </vehicle>
    <vehicle id="veh140" depart="275.80" departLane="best" departPos="random" departSpeed="max">
        <route edges="E3 649040853#1 649040853#2"/>
    </vehicle>
    <vehicle id="veh141" depart="277.77" departLane="best" departPos="random" departSpeed="max">
        <route edges="E3 -223632517 258728090#1 -649064896#1"/>
    </vehicle>
    <vehicle id="veh143" depart="281.71" departLane="best" departPos="random" departSpeed="max">
        <route edges="-223632520#1 223632525#1 -258728090#4 -258728090#3 -258728090#2"/>
    </vehicle>
    <vehicle id="veh146" depart="287.62" departLane="best" departPos="random" departSpeed="max">
        <route edges="-223632526 -671642282 258728090#0 223632517 -E3 -223632520#2 -223632520#1 223632525#1"/>
    </vehicle>
    <vehicle id="veh148" depart="291.56" departLane="best" departPos="random" departSpeed="max">
        <route edges="258728090#0 258728090#1 -649064896#1 649064895"/>
    </vehicle>
    <vehicle id="veh149" depart="293.53" departLane="best" departPos="random" departSpeed="max">
        <route edges="-E3 -223632520#2 -223632520#1 223632525#1"/>
    </vehicle>
    <vehicle id="veh150" depart="295.50" departLane="best" departPos="random" departSpeed="max">
        <route edges="-223632517 258728090#1 -649064896#1 649064896#1 -258728090#2 223632517"/>
    </vehicle>
    <vehicle id="veh152" depart="299.44" departLane="best" departPos="random" departSpeed="max">
        <route edges="-223632517 258728090#1 -649064896#1"/>
    </vehicle>
    <vehicle id="veh154" depart="303.38" departLane="best" departPos="random" departSpeed="max">
        <route edges="-E2 -649064895 E4 258728090#4 -223632525#2 -223632520#0"/>
    </vehicle>
    <vehicle id="veh155" depart="305.35" departLane="best" departPos="random" departSpeed="max">
        <route edges="-223632525#2 223632520#1 223632520#2 -E2 -649064895 649064896#1 258728090#3"/>
    </vehicle>
    <vehicle id="veh156" depart="307.32" departLane="best" departPos="random" departSpeed="max">
        <route edges="E1 -258728090#4 -E4 649064895 E2"/>
    </vehicle>
    <vehicle id="veh157" depart="309.29" departLane="best" departPos="random" departSpeed="max">
        <route edges="-671642282 258728090#0 258728090#1 -649064896#1 649064896#1"/>
    </vehicle>
    <vehicle id="veh158" depart="311.26" departLane="best" departPos="random" departSpeed="max">
        <route edges="-223632526 -671642282 258728090#0 258728090#1 258728090#3 258728090#4 -223632525#2"/>
    </vehicle>
    <vehicle id="veh159" depart="313.23" departLane="best" departPos="random" departSpeed="max">
        <route edges="-144943776 -649040853#1 -E3 -E2 -649064895 E4 -258728090#3 -649064896#1"/>
    </vehicle>
    <vehicle id="veh160" depart="315.20" departLane="best" departPos="random" departSpeed="max">
        <route edges="258728090#1 -649064896#1 649064896#1 -258728090#2 223632517"/>
    </vehicle>
    <vehicle id="veh161" depart="317.17" departLane="best" departPos="random" departSpeed="max">
        <route edges="223632520#1 223632520#2 E3 -223632517 -258728090#0 671642282"/>
    </vehicle>
    <vehicle id="veh162" depart="319.14" departLane="best" departPos="random" departSpeed="max">
        <route edges="258728090#1 258728090#3 258728090#4 -223632525#2"/>
    </vehicle>
    <vehicle id="veh163" depart="321.11" departLane="best" departPos="random" departSpeed="max">
        <route edges="649064895 E2 -223632520#2 -223632520#1 -223632525#0"/>
    </vehicle>
    <vehicle id="veh164" depart="323.08" departLane="best" departPos="random" departSpeed="max">
        <route edges="671642282 223632526"/>
    </vehicle>
    <vehicle id="veh165" depart="325.05" departLane="best" departPos="random" departSpeed="max">
        <route edges="-649064896#1 649064896#1 -258728090#2 -258728090#0"/>
    </vehicle>
    <vehicle id="veh168" depart="330.96" departLane="best" departPos="random" departSpeed="max">
        <route edges="E3 -223632517 258728090#1 -649064896#1 E4"/>
    </vehicle>
    <vehicle id="veh169" depart="332.93" departLane="best" departPos="random" departSpeed="max">
        <route edges="-671642282 258728090#0 223632517 649040853#1 649040853#2"/>
    </vehicle>
    <vehicle id="veh170" depart="334.90" departLane="best" departPos="random" departSpeed="max">
        <route edges="-649064896#1 649064895 E2"/>
    </vehicle>
    <vehicle id="veh171" depart="336.87" departLane="best" departPos="random" departSpeed="max">
        <route edges="223632520#2 -E2 -649064895 E4 258728090#4 -E1 -223632520#1"/>
    </vehicle>
    <vehicle id="veh172" depart="338.84" departLane="best" departPos="random" departSpeed="max">
        <route edges="258728090#4 -E1 223632520#2 -E2 -649064895 649064895"/>
    </vehicle>
    <vehicle id="veh173" depart="340.81" departLane="best" departPos="random" departSpeed="max">
        <route edges="-223632526 -671642282 258728090#0 258728090#1 -649064896#1 649064896#1"/>
    </vehicle>
    <vehicle id="veh174" depart="342.78" departLane="best" departPos="random" departSpeed="max">
        <route edges="-144943776 -649040853#1 -E3 -223632520#2 -223632520#1 -223632525#0"/>
    </vehicle>
    <vehicle id="veh175" depart="344.75" departLane="best" departPos="random" departSpeed="max">
        <route edges="-223632525#2 223632520#1 223632520#2 E3 649040853#1 -223632522"/>
    </vehicle>
    <vehicle id="veh176" depart="346.72" departLane="best" departPos="random" departSpeed="max">
        <route edges="223632525#0 223632520#1 223632520#2 E3 -223632517 -258728090#0 671642282"/>
    </vehicle>
    <vehicle id="veh177" depart="348.69" departLane="best" departPos="random" departSpeed="max">
        <route edges="-223632517 258728090#1 -649064896#1 649064895 E2 -223632520#2 E1"/>
    </vehicle>
    <vehicle id="veh179" depart="352.63" departLane="best" departPos="random" departSpeed="max">
        <route edges="-258728090#3 -258728090#2 -258728090#0"/>
    </vehicle>
    <vehicle id="veh180" depart="354.60" departLane="best" departPos="random" departSpeed="max">
        <route edges="671642282 223632526"/>
    </vehicle>
    <vehicle id="veh181" depart="356.57" departLane="best" departPos="random" departSpeed="max">
        <route edges="223632520#0 223632520#1 223632520#2 E3 649040853#1"/>