<?xml version="1.0" encoding="UTF-8"?>

<!-- generated on 2025-05-11 05:56:29.114605 by randomTrips.py v1_22_0+0002-63e50f52594
<configuration>
    <net-file value="E:/licenta/oras-mic/2025-05-08-13-35-40\osm.net.xml"/>
    <output-trip-file value="E:/licenta/oras-mic/2025-05-08-13-35-40\trips.trips.xml"/>
    <route-file value="E:/licenta/oras-mic/2025-05-08-13-35-40\generated_routes\routes_worker1_f5e614cc.rou.xml"/>
    <prefix value="veh"/>
    <trip-attributes value="departLane=&quot;best&quot; departSpeed=&quot;max&quot; departPos=&quot;random&quot;"/>
    <fringe-factor value="1.5"/>
    <seed value="64061"/>
    <end value="600.0"/>
    <period value="2.17"/>
</configuration>
-->

<!-- generated on 2025-05-11 05:56:29 by Eclipse SUMO duarouter Version 1.22.0
<duarouterConfiguration xmlns:xsi="http://www.w3.org/2001/XMLSchema-instance" xsi:noNamespaceSchemaLocation="http://sumo.dlr.de/xsd/duarouterConfiguration.xsd">

    <input>
        <net-file value="E:/licenta/oras-mic/2025-05-08-13-35-40\osm.net.xml"/>
        <route-files value="E:/licenta/oras-mic/2025-05-08-13-35-40\trips.trips.xml"/>
    </input>

    <output>
        <output-file value="E:/licenta/oras-mic/2025-05-08-13-35-40\generated_routes\routes_worker1_f5e614cc.rou.xml"/>
        <alternatives-output value="NUL"/>
    </output>

    <time>
        <begin value="0"/>
        <end value="600.0"/>
    </time>

    <report>
        <no-warnings value="true"/>
        <ignore-errors value="true"/>
        <no-step-log value="true"/>
    </report>

</duarouterConfiguration>
-->

<routes xmlns:xsi="http://www.w3.org/2001/XMLSchema-instance" xsi:noNamespaceSchemaLocation="http://sumo.dlr.de/xsd/routes_file.xsd">
    <vehicle id="veh0" depart="0.00" departLane="best" departPos="random" departSpeed="max">
        <route edges="-649064896#1 E4 258728090#4 -E1 223632520#2 -E2"/>
    </vehicle>
    <vehicle id="veh1" depart="1.73" departLane="best" departPos="random" departSpeed="max">
        <route edges="-223632525#2 223632520#1 223632520#2 E3 -223632517"/>
    </vehicle>
    <vehicle id="veh2" depart="3.46" departLane="best" departPos="random" departSpeed="max">
        <route edges="E2 -223632520#2 -223632520#1 223632525#1 -E1"/>
    </vehicle>
    <vehicle id="veh3" depart="5.19" departLane="best" departPos="random" departSpeed="max">
        <route edges="223632525#1 -258728090#4 -E4 649064895 E2 E3 649040853#1 649040853#2"/>
    </vehicle>
    <vehicle id="veh4" depart="6.92" departLane="best" departPos="random" departSpeed="max">
        <route edges="-649036317#3 223632520#2 -E2"/>
    </vehicle>
    <vehicle id="veh5" depart="8.65" departLane="best" departPos="random" departSpeed="max">
        <route edges="-649036317#3 223632520#2 E3 649040853#1 649040853#2"/>
    </vehicle>
    <vehicle id="veh6" depart="10.38" departLane="best" departPos="random" departSpeed="max">
        <route edges="223632522 -649040853#1 -223632517 -258728090#0 671642282"/>
    </vehicle>
    <vehicle id="veh7" depart="12.11" departLane="best" departPos="random" departSpeed="max">
        <route edges="649064896#1 258728090#3 -E4 649064895 -649064895 E4"/>
    </vehicle>
    <vehicle id="veh8" depart="13.84" departLane="best" departPos="random" departSpeed="max">
        <route edges="-649064895 649064895 E2 E3 649040853#1 649040853#2"/>
    </vehicle>
    <vehicle id="veh9" depart="15.57" departLane="best" departPos="random" departSpeed="max">
        <route edges="258728090#4 -223632525#2 223632520#1"/>
    </vehicle>
    <vehicle id="veh11" depart="19.03" departLane="best" departPos="random" departSpeed="max">
        <route edges="-144943776 -649040853#1 -E3 -223632520#2 -223632520#1 -223632525#0"/>
    </vehicle>
    <vehicle id="veh12" depart="20.76" departLane="best" departPos="random" departSpeed="max">
        <route edges="223632522 -649040853#1 -E3 -223632520#2 -223632520#1 -223632525#0"/>
    </vehicle>
    <vehicle id="veh13" depart="22.49" departLane="best" departPos="random" departSpeed="max">
        <route edges="-144943776 -649040853#1 -223632517 258728090#1"/>
    </vehicle>
    <vehicle id="veh14" depart="24.22" departLane="best" departPos="random" departSpeed="max">
        <route edges="-258728090#3 -649064896#1 649064895 E2 -223632520#2 649036317#3"/>
    </vehicle>
    <vehicle id="veh15" depart="25.95" departLane="best" departPos="random" departSpeed="max">
        <route edges="649064896#1 258728090#3 258728090#4 -223632525#2 223632520#1 E1 -258728090#4"/>
    </vehicle>
    <vehicle id="veh17" depart="29.41" departLane="best" departPos="random" departSpeed="max">
        <route edges="-649036317#3 223632520#2 -E2 -649064895"/>
    </vehicle>
    <vehicle id="veh18" depart="31.14" departLane="best" departPos="random" departSpeed="max">
        <route edges="223632522 -649040853#1 -E3 -223632520#2 E1 -258728090#4 -E4"/>
    </vehicle>
    <vehicle id="veh19" depart="32.87" departLane="best" departPos="random" departSpeed="max">
        <route edges="-649036317#3 E1"/>
    </vehicle>
    <vehicle id="veh20" depart="34.60" departLane="best" departPos="random" departSpeed="max">
        <route edges="-144943776 -649040853#1 -E3 -223632520#2 649036317#3"/>
    </vehicle>
    <vehicle id="veh21" depart="36.33" departLane="best" departPos="random" departSpeed="max">
        <route edges="223632522 -649040853#1 -E3 -223632520#2 -223632520#1 -223632520#0"/>
    </vehicle>
    <vehicle id="veh22" depart="38.06" departLane="best" departPos="random" departSpeed="max">
        <route edges="223632522 -649040853#1 -E3 -223632520#2 -223632520#1 -223632525#0"/>
    </vehicle>
    <vehicle id="veh23" depart="39.79" departLane="best" departPos="random" departSpeed="max">
        <route edges="-649064895 E4 258728090#4"/>
    </vehicle>
    <vehicle id="veh24" depart="41.52" departLane="best" departPos="random" departSpeed="max">
        <route edges="223632520#2 -E2 -649064895 649064896#1 258728090#3"/>
    </vehicle>
    <vehicle id="veh27" depart="46.71" departLane="best" departPos="random" departSpeed="max">
        <route edges="-144943776 -649040853#1 -E3 -223632520#2 649036317#3"/>
    </vehicle>
    <vehicle id="veh28" depart="48.44" departLane="best" departPos="random" departSpeed="max">
        <route edges="223632525#0 223632520#1 223632520#2 E3 -223632517 -258728090#0"/>
    </vehicle>
    <vehicle id="veh29" depart="50.17" departLane="best" departPos="random" departSpeed="max">
        <route edges="223632520#1 E1 -258728090#4 -E4"/>
    </vehicle>
    <vehicle id="veh31" depart="53.63" departLane="best" departPos="random" departSpeed="max">
        <route edges="-649040853#1 -E3 -E2 -649064895 649064895 E2 E3 649040853#1 649040853#2"/>
    </vehicle>
    <vehicle id="veh32" depart="55.36" departLane="best" departPos="random" departSpeed="max">
        <route edges="-671642282 258728090#0 223632517 649040853#1 -223632522"/>
    </vehicle>
    <vehicle id="veh33" depart="57.09" departLane="best" departPos="random" departSpeed="max">
        <route edges="223632517 649040853#1 -223632522"/>
    </vehicle>
    <vehicle id="veh34" depart="58.82" departLane="best" departPos="random" departSpeed="max">
        <route edges="223632522 -649040853#1 -E3"/>
    </vehicle>
    <vehicle id="veh35" depart="60.55" departLane="best" departPos="random" departSpeed="max">
        <route edges="223632525#0 223632520#1 223632520#2 -E2 -649064895 E4"/>
    </vehicle>
    <vehicle id="veh36" depart="62.28" departLane="best" departPos="random" departSpeed="max">
        <route edges="223632522 -649040853#1 -E3 -223632520#2 -223632520#1 -223632520#0"/>
    </vehicle>
    <vehicle id="veh37" depart="64.01" departLane="best" departPos="random" departSpeed="max">
        <route edges="-649064896#1 649064896#1 258728090#3"/>
    </vehicle>
    <vehicle id="veh38" depart="65.74" departLane="best" departPos="random" departSpeed="max">
        <route edges="223632522 -649040853#1 -223632517 -258728090#0 671642282"/>
    </vehicle>
    <vehicle id="veh39" depart="67.47" departLane="best" departPos="random" departSpeed="max">
        <route edges="223632525#0 223632520#1 E1 -223632525#2"/>
    </vehicle>
    <vehicle id="veh40" depart="69.20" departLane="best" departPos="random" departSpeed="max">
        <route edges="-E4 649064895 -649064895 E4"/>
    </vehicle>
    <vehicle id="veh41" depart="70.93" departLane="best" departPos="random" departSpeed="max">
        <route edges="223632525#0 223632520#1 E1"/>
    </vehicle>
    <vehicle id="veh42" depart="72.66" departLane="best" departPos="random" departSpeed="max">
        <route edges="223632520#0 223632525#1 -258728090#4 -E4"/>
    </vehicle>
    <vehicle id="veh43" depart="74.39" departLane="best" departPos="random" departSpeed="max">
        <route edges="-223632526 -671642282 258728090#0 223632517 649040853#1"/>
    </vehicle>
    <vehicle id="veh44" depart="76.12" departLane="best" departPos="random" departSpeed="max">
        <route edges="-144943776 -649040853#1 -E3 -223632520#2 -223632520#1 223632525#1"/>
    </vehicle>
    <vehicle id="veh45" depart="77.85" departLane="best" departPos="random" departSpeed="max">
        <route edges="-258728090#4 258728090#4 -223632525#2 -223632525#0"/>
    </vehicle>
    <vehicle id="veh46" depart="79.58" departLane="best" departPos="random" departSpeed="max">
        <route edges="223632517 -E3 -E2 -649064895 649064895 E2"/>
    </vehicle>
    <vehicle id="veh47" depart="81.31" departLane="best" departPos="random" departSpeed="max">
        <route edges="-223632520#2 E1 -258728090#4 -E4 649064895 E2 E3 -223632517 258728090#1"/>
    </vehicle>
    <vehicle id="veh48" depart="83.04" departLane="best" departPos="random" departSpeed="max">
        <route edges="223632522 -649040853#1 -E3 -223632520#2 -223632520#1 -223632520#0"/>
    </vehicle>
    <vehicle id="veh50" depart="86.50" departLane="best" departPos="random" departSpeed="max">
        <route edges="-144943776 -649040853#1 -E3 -E2 -649064895 E4 -258728090#3"/>
    </vehicle>
    <vehicle id="veh51" depart="88.23" departLane="best" departPos="random" departSpeed="max">
        <route edges="258728090#3 -E4 649064895 E2 E3 649040853#1 -223632522"/>
    </vehicle>
    <vehicle id="veh52" depart="89.96" departLane="best" departPos="random" departSpeed="max">
        <route edges="-258728090#2 223632517 -E3 -223632520#2 -223632520#1 223632525#1"/>
    </vehicle>
    <vehicle id="veh53" depart="91.69" departLane="best" departPos="random" departSpeed="max">
        <route edges="-649036317#3 223632520#2 E3 -223632517 258728090#1"/>
    </vehicle>
    <vehicle id="veh54" depart="93.42" departLane="best" departPos="random" departSpeed="max">
        <route edges="223632525#0 223632520#1 E1 -223632525#2 -223632525#0"/>
    </vehicle>
    <vehicle id="veh55" depart="95.15" departLane="best" departPos="random" departSpeed="max">
        <route edges="223632525#1 -258728090#4 -E4 649064895 -649064895"/>
    </vehicle>
    <vehicle id="veh56" depart="96.88" departLane="best" departPos="random" departSpeed="max">
        <route edges="223632520#2 E3 -223632517"/>
    </vehicle>
    <vehicle id="veh57" depart="98.61" departLane="best" departPos="random" departSpeed="max">
        <route edges="223632525#0 223632520#1 649036317#3"/>
    </vehicle>
    <vehicle id="veh58" depart="100.34" departLane="best" departPos="random" departSpeed="max">
        <route edges="223632517 -E3 -E2 -649064895 E4 -258728090#3"/>
    </vehicle>
    <vehicle id="veh59" depart="102.07" departLane="best" departPos="random" departSpeed="max">
        <route edges="649064895 E2 E3"/>
    </vehicle>
    <vehicle id="veh60" depart="103.80" departLane="best" departPos="random" departSpeed="max">
        <route edges="-223632525#2 223632520#1 649036317#3"/>
    </vehicle>
    <vehicle id="veh61" depart="105.53" departLane="best" departPos="random" departSpeed="max">
        <route edges="-E2 -649064895"/>
    </vehicle>
    <vehicle id="veh62" depart="107.26" departLane="best" departPos="random" departSpeed="max">
        <route edges="223632522 -649040853#1 -223632517 -258728090#0 671642282 223632526"/>
    </vehicle>
    <vehicle id="veh63" depart="108.99" departLane="best" departPos="random" departSpeed="max">
        <route edges="-223632526 -671642282 258728090#0 258728090#1 -649064896#1 649064896#1 -258728090#2 -258728090#0 671642282 223632526"/>
    </vehicle>
    <vehicle id="veh64" depart="110.72" departLane="best" departPos="random" departSpeed="max">
        <route edges="223632520#0 -223632525#0"/>
    </vehicle>
    <vehicle id="veh65" depart="112.45" departLane="best" departPos="random" departSpeed="max">
        <route edges="-649064895 E4"/>
    </vehicle>
    <vehicle id="veh66" depart="114.18" departLane="best" departPos="random" departSpeed="max">
        <route edges="223632525#1 -258728090#4 258728090#4 -223632525#2"/>
    </vehicle>
    <vehicle id="veh67" depart="115.91" departLane="best" departPos="random" departSpeed="max">
        <route edges="223632522 -649040853#1 -E3 -223632520#2"/>
    </vehicle>
    <vehicle id="veh68" depart="117.64" departLane="best" departPos="random" departSpeed="max">
        <route edges="649064896#1 258728090#3 258728090#4 -E1 649036317#3"/>
    </vehicle>
    <vehicle id="veh69" depart="119.37" departLane="best" departPos="random" departSpeed="max">
        <route edges="223632525#0 223632520#1 223632520#2 E3"/>
    </vehicle>
    <vehicle id="veh70" depart="121.10" departLane="best" departPos="random" departSpeed="max">
        <route edges="-144943776 -649040853#1 -E3 -223632520#2 -223632520#1 -223632525#0"/>
    </vehicle>
    <vehicle id="veh72" depart="124.56" departLane="best" departPos="random" departSpeed="max">
        <route edges="223632525#1 -258728090#4 258728090#4 -223632525#2"/>
    </vehicle>
    <vehicle id="veh73" depart="126.29" departLane="best" departPos="random" departSpeed="max">
        <route edges="-144943776 -649040853#1 -E3 -E2 -649064895 649064896#1 258728090#3"/>
    </vehicle>
    <vehicle id="veh74" depart="128.02" departLane="best" departPos="random" departSpeed="max">
        <route edges="-649064895 649064895 E2 E3 649040853#1 -223632522"/>
    </vehicle>
    <vehicle id="veh75" depart="129.75" departLane="best" departPos="random" departSpeed="max">
        <route edges="-649036317#3 -223632520#1 223632525#1 -E1"/>
    </vehicle>
    <vehicle id="veh77" depart="133.21" departLane="best" departPos="random" departSpeed="max">
        <route edges="223632522 -649040853#1 -E3 -E2"/>
    </vehicle>
    <vehicle id="veh78" depart="134.94" departLane="best" departPos="random" departSpeed="max">
        <route edges="649064896#1 258728090#3 258728090#4 -E1"/>
    </vehicle>
    <vehicle id="veh79" depart="136.67" departLane="best" departPos="random" departSpeed="max">
        <route edges="-223632526 -671642282 258728090#0 258728090#1 258728090#3 -E4"/>
    </vehicle>
    <vehicle id="veh80" depart="138.40" departLane="best" departPos="random" departSpeed="max">
        <route edges="649064895 E2 E3 649040853#1 649040853#2"/>
    </vehicle>
    <vehicle id="veh81" depart="140.13" departLane="best" departPos="random" departSpeed="max">
        <route edges="-649036317#3 E1 -258728090#4 -E4"/>
    </vehicle>
    <vehicle id="veh82" depart="141.86" departLane="best" departPos="random" departSpeed="max">
        <route edges="E1 -258728090#4 258728090#4"/>
    </vehicle>
    <vehicle id="veh83" depart="143.59" departLane="best" departPos="random" departSpeed="max">
        <route edges="-649036317#3 E1 -258728090#4 -258728090#3 -258728090#2 223632517 -E3"/>
    </vehicle>
    <vehicle id="veh84" depart="145.32" departLane="best" departPos="random" departSpeed="max">
        <route edges="-258728090#3 -649064896#1 649064895 E2 -223632520#2"/>
    </vehicle>
    <vehicle id="veh85" depart="147.05" departLane="best" departPos="random" departSpeed="max">
        <route edges="-223632526 -671642282 258728090#0 258728090#1 -649064896#1 649064895 E2 E3"/>
    </vehicle>
    <vehicle id="veh86" depart="148.78" departLane="best" departPos="random" departSpeed="max">
        <route edges="223632525#0 223632525#1"/>
    </vehicle>
    <vehicle id="veh87" depart="150.51" departLane="best" departPos="random" departSpeed="max">
        <route edges="223632520#1 223632520#2 E3 649040853#1 -223632522"/>
    </vehicle>
    <vehicle id="veh88" depart="152.24" departLane="best" departPos="random" departSpeed="max">
        <route edges="258728090#0 258728090#1 -649064896#1"/>
    </vehicle>
    <vehicle id="veh89" depart="153.97" departLane="best" departPos="random" departSpeed="max">
        <route edges="258728090#0 258728090#1 -649064896#1 E4 -258728090#3"/>
    </vehicle>
    <vehicle id="veh91" depart="157.43" departLane="best" departPos="random" departSpeed="max">
        <route edges="223632525#0 223632520#1 223632520#2 E3 649040853#1 -223632522"/>
    </vehicle>
    <vehicle id="veh92" depart="159.16" departLane="best" departPos="random" departSpeed="max">
        <route edges="-223632526 -671642282 258728090#0 223632517 -E3 -223632520#2 -223632520#1 -223632520#0"/>
    </vehicle>
    <vehicle id="veh93" depart="160.89" departLane="best" departPos="random" departSpeed="max">
        <route edges="-671642282 258728090#0 258728090#1 -649064896#1 649064896#1 -258728090#2 -258728090#0 671642282"/>
    </vehicle>
    <vehicle id="veh94" depart="162.62" departLane="best" departPos="random" departSpeed="max">
        <route edges="-258728090#2 223632517 649040853#1 -223632522"/>
    </vehicle>
    <vehicle id="veh95" depart="164.35" departLane="best" departPos="random" departSpeed="max">
        <route edges="223632520#2 -E2 -649064895 649064895 E2 -223632520#2 E1 -258728090#4"/>
    </vehicle>
    <vehicle id="veh96" depart="166.08" departLane="best" departPos="random" departSpeed="max">
        <route edges="-649036317#3 223632520#2 E3 -223632517 -258728090#0 671642282 223632526"/>
    </vehicle>
    <vehicle id="veh97" depart="167.81" departLane="best" departPos="random" departSpeed="max">
        <route edges="223632520#2 E3 -223632517 -258728090#0 671642282 223632526"/>
    </vehicle>
    <vehicle id="veh98" depart="169.54" departLane="best" departPos="random" departSpeed="max">
        <route edges="223632525#0 223632520#1 223632520#2 -E2 -649064895 E4"/>
    </vehicle>
    <vehicle id="veh100" depart="173.00" departLane="best" departPos="random" departSpeed="max">
        <route edges="-258728090#2 223632517 -E3 -223632520#2 -223632520#1 -223632525#0"/>
    </vehicle>
    <vehicle id="veh101" depart="174.73" departLane="best" departPos="random" departSpeed="max">
        <route edges="-223632520#1 223632525#1 -E1 649036317#3"/>
    </vehicle>
    <vehicle id="veh102" depart="176.46" departLane="best" departPos="random" departSpeed="max">
        <route edges="-649036317#3 223632520#2 E3 -223632517"/>
    </vehicle>
    <vehicle id="veh103" depart="178.19" departLane="best" departPos="random" departSpeed="max">
        <route edges="-649036317#3 223632520#2 E3 -223632517 -258728090#0 671642282"/>
    </vehicle>
    <vehicle id="veh104" depart="179.92" departLane="best" departPos="random" departSpeed="max">
        <route edges="649064895 -649064895 E4 -258728090#3"/>
    </vehicle>
    <vehicle id="veh105" depart="181.65" departLane="best" departPos="random" departSpeed="max">
        <route edges="-649064895 E4 258728090#4 -E1 649036317#3"/>
    </vehicle>
    <vehicle id="veh106" depart="183.38" departLane="best" departPos="random" departSpeed="max">
        <route edges="-223632526 -671642282 258728090#0 258728090#1 258728090#3 258728090#4 -E1"/>
    </vehicle>
    <vehicle id="veh107" depart="185.11" departLane="best" departPos="random" departSpeed="max">
        <route edges="-223632517 -258728090#0 671642282 223632526"/>
    </vehicle>
    <vehicle id="veh108" depart="186.84" departLane="best" departPos="random" departSpeed="max">
        <route edges="-649040853#1 -E3 -E2 -649064895 649064895 E2 E3 649040853#1 649040853#2"/>
    </vehicle>
    <vehicle id="veh109" depart="188.57" departLane="best" departPos="random" departSpeed="max">
        <route edges="-E3 -E2 -649064895 E4"/>
    </vehicle>
    <vehicle id="veh110" depart="190.30" departLane="best" departPos="random" departSpeed="max">
        <route edges="-671642282 258728090#0 223632517 649040853#1 -223632522"/>
    </vehicle>
    <vehicle id="veh111" depart="192.03" departLane="best" departPos="random" departSpeed="max">
        <route edges="-223632526 -671642282 258728090#0 223632517 -E3"/>
    </vehicle>
    <vehicle id="veh112" depart="193.76" departLane="best" departPos="random" departSpeed="max">
        <route edges="-649036317#3 223632520#2 E3 -223632517"/>
    </vehicle>
    <vehicle id="veh113" depart="195.49" departLane="best" departPos="random" departSpeed="max">
        <route edges="-E2 -649064895 649064895 E2 -223632520#2"/>
    </vehicle>
    <vehicle id="veh114" depart="197.22" departLane="best" departPos="random" departSpeed="max">
        <route edges="-144943776 -223632522"/>
    </vehicle>
    <vehicle id="veh115" depart="198.95" departLane="best" departPos="random" departSpeed="max">
        <route edges="-144943776 -649040853#1 -E3 -223632520#2 649036317#3"/>
    </vehicle>
    <vehicle id="veh116" depart="200.68" departLane="best" departPos="random" departSpeed="max">
        <route edges="649064896#1 258728090#3 258728090#4 -223632525#2 -223632525#0"/>
    </vehicle>
    <vehicle id="veh118" depart="204.14" departLane="best" departPos="random" departSpeed="max">
        <route edges="E1 -223632525#2 223632520#1 649036317#3"/>
    </vehicle>
    <vehicle id="veh119" depart="205.87" departLane="best" departPos="random" departSpeed="max">
        <route edges="223632520#0 223632525#1 -258728090#4 -258728090#3 -258728090#2 223632517 -E3"/>
    </vehicle>
    <vehicle id="veh120" depart="207.60" departLane="best" departPos="random" departSpeed="max">
        <route edges="-223632520#1 223632525#1 -258728090#4 -E4 649064895 E2 E3 649040853#1 -223632522"/>
    </vehicle>
    <vehicle id="veh121" depart="209.33" departLane="best" departPos="random" departSpeed="max">
        <route edges="649064896#1 258728090#3 -258728090#3 -649064896#1"/>
    </vehicle>
    <vehicle id="veh122" depart="211.06" departLane="best" departPos="random" departSpeed="max">
        <route edges="223632522 -649040853#1 -E3 -E2 -649064895 649064895 E2 E3 649040853#1"/>
    </vehicle>
    <vehicle id="veh123" depart="212.79" departLane="best" departPos="random" departSpeed="max">
        <route edges="-223632525#2 -223632520#0"/>
    </vehicle>
    <vehicle id="veh124" depart="214.52" departLane="best" departPos="random" departSpeed="max">
        <route edges="223632525#1 -E1 649036317#3"/>
    </vehicle>
    <vehicle id="veh125" depart="216.25" departLane="best" departPos="random" departSpeed="max">
        <route edges="-649064896#1 649064895 E2 E3 649040853#1 649040853#2"/>
    </vehicle>
    <vehicle id="veh126" depart="217.98" departLane="best" departPos="random" departSpeed="max">
        <route edges="223632520#0 223632520#1 223632520#2"/>
    </vehicle>
    <vehicle id="veh127" depart="219.71" departLane="best" departPos="random" departSpeed="max">
        <route edges="223632525#0 223632525#1 -258728090#4 -E4"/>
    </vehicle>
    <vehicle id="veh128" depart="221.44" departLane="best" departPos="random" departSpeed="max">
        <route edges="-E2 -649064895 649064895"/>
    </vehicle>
    <vehicle id="veh129" depart="223.17" departLane="best" departPos="random" departSpeed="max">
        <route edges="-223632520#2 -223632520#1 -223632525#0"/>
    </vehicle>
    <vehicle id="veh130" depart="224.90" departLane="best" departPos="random" departSpeed="max">
        <route edges="223632520#0 223632525#1 -E1 -223632520#1"/>
    </vehicle>
    <vehicle id="veh131" depart="226.63" departLane="best" departPos="random" departSpeed="max">
        <route edges="-144943776 -649040853#1 -E3 -223632520#2"/>
    </vehicle>
    <vehicle id="veh132" depart="228.36" departLane="best" departPos="random" departSpeed="max">
        <route edges="-649064895 649064895 E2 E3 649040853#1 -223632522"/>
    </vehicle>
    <vehicle id="veh133" depart="230.09" departLane="best" departPos="random" departSpeed="max">
        <route edges="-223632526 -671642282 258728090#0 223632517 -E3 -223632520#2 -223632520#1 -223632520#0"/>
    </vehicle>
    <vehicle id="veh134" depart="231.82" departLane="best" departPos="random" departSpeed="max">
        <route edges="223632520#2 -E2 -649064895 E4 258728090#4 -E1 649036317#3"/>
    </vehicle>
    <vehicle id="veh135" depart="233.55" departLane="best" departPos="random" departSpeed="max">
        <route edges="-E2 -649064895 649064896#1 -258728090#2 -258728090#0 671642282"/>
    </vehicle>
    <vehicle id="veh136" depart="235.28" departLane="best" departPos="random" departSpeed="max">
        <route edges="223632525#0 223632520#1 223632520#2 E3 649040853#1 649040853#2"/>
    </vehicle>
    <vehicle id="veh137" depart="237.01" departLane="best" departPos="random" departSpeed="max">
        <route edges="-E1 -223632520#1 -223632520#0"/>
    </vehicle>
    <vehicle id="veh138" depart="238.74" departLane="best" departPos="random" departSpeed="max">
        <route edges="-E1 223632520#2 -E2 -649064895 E4 258728090#4 -223632525#2 223632520#1"/>
    </vehicle>
    <vehicle id="veh139" depart="240.47" departLane="best" departPos="random" departSpeed="max">
        <route edges="-649036317#3 E1 -223632525#2 223632520#1 649036317#3"/>
    </vehicle>
    <vehicle id="veh140" depart="242.20" departLane="best" departPos="random" departSpeed="max">
        <route edges="-144943776 -223632522"/>
    </vehicle>
    <vehicle id="veh141" depart="243.93" departLane="best" departPos="random" departSpeed="max">
        <route edges="223632517 -E3 -E2 -649064895 649064896#1 -258728090#2 -258728090#0 671642282 223632526"/>
    </vehicle>
    <vehicle id="veh142" depart="245.66" departLane="best" departPos="random" departSpeed="max">
        <route edges="223632520#0 223632520#1 E1 -223632525#2 -223632520#0"/>
    </vehicle>
    <vehicle id="veh143" depart="247.39" departLane="best" departPos="random" departSpeed="max">
        <route edges="223632522 -649040853#1 -223632517 -258728090#0"/>
    </vehicle>
    <vehicle id="veh144" depart="249.12" departLane="best" departPos="random" departSpeed="max">
        <route edges="-649036317#3 -223632520#1 223632525#1"/>
    </vehicle>
    <vehicle id="veh145" depart="250.85" departLane="best" departPos="random" departSpeed="max">
        <route edges="-649064895 649064895 E2 E3 649040853#1 649040853#2"/>
    </vehicle>
    <vehicle id="veh146" depart="252.58" departLane="best" departPos="random" departSpeed="max">
        <route edges="-649036317#3 -223632520#1 -223632520#0"/>
    </vehicle>
    <vehicle id="veh147" depart="254.31" departLane="best" departPos="random" departSpeed="max">
        <route edges="-649040853#1 -E3 -223632520#2 649036317#3"/>
    </vehicle>
    <vehicle id="veh148" depart="256.04" departLane="best" departPos="random" departSpeed="max">
        <route edges="-649064896#1 649064896#1 -258728090#2 223632517"/>
    </vehicle>
    <vehicle id="veh149" depart="257.77" departLane="best" departPos="random" departSpeed="max">
        <route edges="223632522 -649040853#1 -E3 -E2"/>
    </vehicle>
    <vehicle id="veh150" depart="259.50" departLane="best" departPos="random" departSpeed="max">
        <route edges="258728090#1 258728090#3 258728090#4"/>
    </vehicle>
    <vehicle id="veh151" depart="261.23" departLane="best" departPos="random" departSpeed="max">
        <route edges="-E4 649064896#1 -258728090#2 -258728090#0 671642282 223632526"/>
    </vehicle>
    <vehicle id="veh152" depart="262.96" departLane="best" departPos="random" departSpeed="max">
        <route edges="223632522 -649040853#1 -223632517 -258728090#0 671642282 223632526"/>
    </vehicle>
    <vehicle id="veh153" depart="264.69" departLane="best" departPos="random" departSpeed="max">
        <route edges="-E1 -223632520#1"/>
    </vehicle>
    <vehicle id="veh154" depart="266.42" departLane="best" departPos="random" departSpeed="max">
        <route edges="-E4 649064895 E2 -223632520#2 -223632520#1 -223632520#0"/>
    </vehicle>
    <vehicle id="veh155" depart="268.15" departLane="best" departPos="random" departSpeed="max">
        <route edges="-223632520#1 223632525#1 -258728090#4 -258728090#3 -649064896#1"/>
    </vehicle>
    <vehicle id="veh156" depart="269.88" departLane="best" departPos="random" departSpeed="max">
        <route edges="-649036317#3 E1 -223632525#2 223632520#1 649036317#3"/>
    </vehicle>
    <vehicle id="veh158" depart="273.34" departLane="best" departPos="random" departSpeed="max">
        <route edges="-E2 -649064895 E4 258728090#4 -E1 649036317#3"/>
    </vehicle>
    <vehicle id="veh160" depart="276.80" departLane="best" departPos="random" departSpeed="max">
        <route edges="E2 -223632520#2 E1 -258728090#4 258728090#4"/>
    </vehicle>
    <vehicle id="veh161" depart="278.53" departLane="best" departPos="random" departSpeed="max">
        <route edges="223632520#1 E1 -223632525#2 -223632520#0"/>
    </vehicle>
    <vehicle id="veh162" depart="280.26" departLane="best" departPos="random" departSpeed="max">
        <route edges="223632525#0 223632525#1 -258728090#4 -258728090#3 -258728090#2"/>
    </vehicle>
    <vehicle id="veh163" depart="281.99" departLane="best" departPos="random" departSpeed="max">
        <route edges="223632520#0 223632520#1 649036317#3"/>
    </vehicle>
    <vehicle id="veh164" depart="283.72" departLane="best" departPos="random" departSpeed="max">
        <route edges="258728090#4 -E1 223632520#2 E3 -223632517"/>
    </vehicle>