<?xml version="1.0" encoding="UTF-8"?>

<!-- generated on 2025-05-11 04:03:12.364314 by randomTrips.py v1_22_0+0002-63e50f52594
<configuration>
    <net-file value="E:/licenta/oras-mic/2025-05-08-13-35-40\osm.net.xml"/>
    <output-trip-file value="E:/licenta/oras-mic/2025-05-08-13-35-40\trips.trips.xml"/>
    <route-file value="E:/licenta/oras-mic/2025-05-08-13-35-40\generated_routes\routes_worker0_51bcf0fe.rou.xml"/>
    <prefix value="veh"/>
    <trip-attributes value="departLane=&quot;best&quot; departSpeed=&quot;max&quot; departPos=&quot;random&quot;"/>
    <fringe-factor value="3.8"/>
    <seed value="2005"/>
    <end value="600.0"/>
    <period value="1.77"/>
</configuration>
-->

<!-- generated on 2025-05-11 04:03:12 by Eclipse SUMO duarouter Version 1.22.0
<duarouterConfiguration xmlns:xsi="http://www.w3.org/2001/XMLSchema-instance" xsi:noNamespaceSchemaLocation="http://sumo.dlr.de/xsd/duarouterConfiguration.xsd">

    <input>
        <net-file value="E:/licenta/oras-mic/2025-05-08-13-35-40\osm.net.xml"/>
        <route-files value="E:/licenta/oras-mic/2025-05-08-13-35-40\trips.trips.xml"/>
    </input>

    <output>
        <output-file value="E:/licenta/oras-mic/2025-05-08-13-35-40\generated_routes\routes_worker0_51bcf0fe.rou.xml"/>
        <alternatives-output value="NUL"/>
    </output>

    <time>
        <begin value="0"/>
        <end value="600.0"/>
    </time>

    <report>
        <no-warnings value="true"/>
        <ignore-errors value="true"/>
        <no-step-log value="true"/>
    </report>

</duarouterConfiguration>
-->

<routes xmlns:xsi="http://www.w3.org/2001/XMLSchema-instance" xsi:noNamespaceSchemaLocation="http://sumo.dlr.de/xsd/routes_file.xsd">
    <vehicle id="veh0" depart="0.00" departLane="best" departPos="random" departSpeed="max">
        <route edges="223632525#1 -258728090#4 -E4 649064895 E2 E3 649040853#1"/>
    </vehicle>
    <vehicle id="veh1" depart="2.11" departLane="best" departPos="random" departSpeed="max">
        <route edges="258728090#1 -649064896#1 649064895"/>
    </vehicle>
    <vehicle id="veh2" depart="4.22" departLane="best" departPos="random" departSpeed="max">
        <route edges="E2 -223632520#2 -223632520#1 223632525#1"/>
    </vehicle>
    <vehicle id="veh3" depart="6.33" departLane="best" departPos="random" departSpeed="max">
        <route edges="223632520#0 223632520#1 223632520#2 -E2"/>
    </vehicle>
    <vehicle id="veh6" depart="12.66" departLane="best" departPos="random" departSpeed="max">
        <route edges="258728090#1 -649064896#1 649064895"/>
    </vehicle>
    <vehicle id="veh7" depart="14.77" departLane="best" departPos="random" departSpeed="max">
        <route edges="-223632525#2 223632520#1 223632520#2 E3"/>
    </vehicle>
    <vehicle id="veh8" depart="16.88" departLane="best" departPos="random" departSpeed="max">
        <route edges="223632520#0 223632520#1 E1 -223632525#2 -223632520#0"/>
    </vehicle>
    <vehicle id="veh9" depart="18.99" departLane="best" departPos="random" departSpeed="max">
        <route edges="-E2 -649064895 649064896#1 -258728090#2 -258728090#0 671642282 223632526"/>
    </vehicle>
    <vehicle id="veh10" depart="21.10" departLane="best" departPos="random" departSpeed="max">
        <route edges="-258728090#3 -649064896#1 E4 258728090#4 -223632525#2 -223632520#0"/>
    </vehicle>
    <vehicle id="veh11" depart="23.21" departLane="best" departPos="random" departSpeed="max">
        <route edges="-258728090#2 223632517 649040853#1 649040853#2"/>
    </vehicle>
    <vehicle id="veh12" depart="25.32" departLane="best" departPos="random" departSpeed="max">
        <route edges="-E2 -649064895 E4 258728090#4 -223632525#2 223632520#1"/>
    </vehicle>
    <vehicle id="veh13" depart="27.43" departLane="best" departPos="random" departSpeed="max">
        <route edges="-258728090#2 223632517 649040853#1 649040853#2"/>
    </vehicle>
    <vehicle id="veh14" depart="29.54" departLane="best" departPos="random" departSpeed="max">
        <route edges="223632520#0 223632520#1 223632520#2 -E2"/>
    </vehicle>
    <vehicle id="veh15" depart="31.65" departLane="best" departPos="random" departSpeed="max">
        <route edges="-E2 -649064895 649064895 E2"/>
    </vehicle>
    <vehicle id="veh16" depart="33.76" departLane="best" departPos="random" departSpeed="max">
        <route edges="E1 -258728090#4 -E4 649064895 E2 E3 -223632517 258728090#1"/>
    </vehicle>
    <vehicle id="veh17" depart="35.87" departLane="best" departPos="random" departSpeed="max">
        <route edges="-223632525#2 223632520#1 E1 -258728090#4 -258728090#3 -258728090#2"/>
    </vehicle>
    <vehicle id="veh18" depart="37.98" departLane="best" departPos="random" departSpeed="max">
        <route edges="223632520#0 223632525#1 -258728090#4 -E4 649064895 E2 -223632520#2"/>
    </vehicle>
    <vehicle id="veh19" depart="40.09" departLane="best" departPos="random" departSpeed="max">
        <route edges="-258728090#3 -649064896#1 649064895 E2 -223632520#2 E1 -258728090#4"/>
    </vehicle>
    <vehicle id="veh20" depart="42.20" departLane="best" departPos="random" departSpeed="max">
        <route edges="-223632526 -671642282 258728090#0 258728090#1 -649064896#1 649064896#1 -258728090#2 -258728090#0"/>
    </vehicle>
    <vehicle id="veh22" depart="46.42" departLane="best" departPos="random" departSpeed="max">
        <route edges="-E1 223632520#2 E3 -223632517 258728090#1"/>
    </vehicle>
    <vehicle id="veh23" depart="48.53" departLane="best" departPos="random" departSpeed="max">
        <route edges="-649036317#3 223632520#2 E3 649040853#1 649040853#2"/>
    </vehicle>
    <vehicle id="veh24" depart="50.64" departLane="best" departPos="random" departSpeed="max">
        <route edges="-144943776 -649040853#1 -E3 -223632520#2 E1 -258728090#4"/>
    </vehicle>
    <vehicle id="veh25" depart="52.75" departLane="best" departPos="random" departSpeed="max">
        <route edges="223632522 -649040853#1 -E3 -E2 -649064895 E4 258728090#4 -223632525#2 223632520#1"/>
    </vehicle>
    <vehicle id="veh26" depart="54.86" departLane="best" departPos="random" departSpeed="max">
        <route edges="223632520#1 223632520#2 -E2 -649064895 649064895"/>
    </vehicle>
    <vehicle id="veh27" depart="56.97" departLane="best" departPos="random" departSpeed="max">
        <route edges="223632522 -649040853#1 -E3 -223632520#2 -223632520#1 -223632520#0"/>
    </vehicle>
    <vehicle id="veh28" depart="59.08" departLane="best" departPos="random" departSpeed="max">
        <route edges="223632525#1 -258728090#4 -E4 649064895 E2 E3 649040853#1 -223632522"/>
    </vehicle>
    <vehicle id="veh29" depart="61.19" departLane="best" departPos="random" departSpeed="max">
        <route edges="-649036317#3 223632520#2 E3 -223632517 258728090#1"/>
    </vehicle>
    <vehicle id="veh31" depart="65.41" departLane="best" departPos="random" departSpeed="max">
        <route edges="223632522 -649040853#1 -E3 -E2 -649064895 649064895 E2 E3 649040853#1 -223632522"/>
    </vehicle>
    <vehicle id="veh32" depart="67.52" departLane="best" departPos="random" departSpeed="max">
        <route edges="223632520#0 223632520#1 223632520#2 E3 649040853#1 -223632522"/>
    </vehicle>
    <vehicle id="veh33" depart="69.63" departLane="best" departPos="random" departSpeed="max">
        <route edges="E3 -223632517 258728090#1 -649064896#1 649064896#1 -258728090#2 223632517 -E3"/>
    </vehicle>
    <vehicle id="veh34" depart="71.74" departLane="best" departPos="random" departSpeed="max">
        <route edges="-223632526 -671642282 258728090#0 223632517 649040853#1 -223632522"/>
    </vehicle>
    <vehicle id="veh35" depart="73.85" departLane="best" departPos="random" departSpeed="max">
        <route edges="-144943776 -649040853#1 -E3 -E2 -649064895 649064895 E2"/>
    </vehicle>
    <vehicle id="veh36" depart="75.96" departLane="best" departPos="random" departSpeed="max">
        <route edges="-258728090#3 -649064896#1 649064895 E2 E3 649040853#1 649040853#2"/>
    </vehicle>
    <vehicle id="veh37" depart="78.07" departLane="best" departPos="random" departSpeed="max">
        <route edges="223632517 -E3 -E2 -649064895 649064895 E2 E3"/>
    </vehicle>
    <vehicle id="veh38" depart="80.18" departLane="best" departPos="random" departSpeed="max">
        <route edges="258728090#1"/>
    </vehicle>
    <vehicle id="veh39" depart="82.29" departLane="best" departPos="random" departSpeed="max">
        <route edges="-649036317#3 E1 -223632525#2"/>
    </vehicle>
    <vehicle id="veh40" depart="84.40" departLane="best" departPos="random" departSpeed="max">
        <route edges="-649036317#3 223632520#2 -E2"/>
    </vehicle>
    <vehicle id="veh42" depart="88.62" departLane="best" departPos="random" departSpeed="max">
        <route edges="-649036317#3 -223632520#1 -223632520#0"/>
    </vehicle>
    <vehicle id="veh43" depart="90.73" departLane="best" departPos="random" departSpeed="max">
        <route edges="-223632526 -671642282 258728090#0 223632517 -E3 -223632520#2 649036317#3"/>
    </vehicle>
    <vehicle id="veh45" depart="94.95" departLane="best" departPos="random" departSpeed="max">
        <route edges="223632517 -E3 -223632520#2 -223632520#1 -223632525#0"/>
    </vehicle>
    <vehicle id="veh46" depart="97.06" departLane="best" departPos="random" departSpeed="max">
        <route edges="223632520#0 223632520#1 223632520#2 E3 -223632517 -258728090#0 671642282 223632526"/>
    </vehicle>
    <vehicle id="veh47" depart="99.17" departLane="best" departPos="random" departSpeed="max">
        <route edges="-E1 649036317#3"/>
    </vehicle>
    <vehicle id="veh48" depart="101.28" departLane="best" departPos="random" departSpeed="max">
        <route edges="223632525#0 223632520#1 223632520#2 E3 649040853#1 649040853#2"/>
    </vehicle>
    <vehicle id="veh49" depart="103.39" departLane="best" departPos="random" departSpeed="max">
        <route edges="-144943776 -649040853#1 -E3 -E2 -649064895 649064895"/>
    </vehicle>
    <vehicle id="veh50" depart="105.50" departLane="best" departPos="random" departSpeed="max">
        <route edges="223632525#0 223632525#1 -258728090#4 -258728090#3 -258728090#2"/>
    </vehicle>
    <vehicle id="veh52" depart="109.72" departLane="best" departPos="random" departSpeed="max">
        <route edges="-223632526 -671642282 258728090#0 223632517 649040853#1 -223632522"/>
    </vehicle>
    <vehicle id="veh53" depart="111.83" departLane="best" departPos="random" departSpeed="max">
        <route edges="-649036317#3 223632520#2 E3 -223632517 -258728090#0 671642282"/>
    </vehicle>
    <vehicle id="veh54" depart="113.94" departLane="best" departPos="random" departSpeed="max">
        <route edges="-649064896#1 649064895 E2"/>
    </vehicle>
    <vehicle id="veh55" depart="116.05" departLane="best" departPos="random" departSpeed="max">
        <route edges="-649036317#3 -223632520#1 -223632525#0"/>
    </vehicle>
    <vehicle id="veh56" depart="118.16" departLane="best" departPos="random" departSpeed="max">
        <route edges="-649036317#3 E1 -258728090#4 -258728090#3 -258728090#2 223632517 -E3"/>
    </vehicle>
    <vehicle id="veh57" depart="120.27" departLane="best" departPos="random" departSpeed="max">
        <route edges="E2 -223632520#2 E1 -258728090#4 -258728090#3 -258728090#2 223632517 -E3"/>
    </vehicle>
    <vehicle id="veh58" depart="122.38" departLane="best" departPos="random" departSpeed="max">
        <route edges="-E4 649064895 E2 E3 649040853#1"/>
    </vehicle>
    <vehicle id="veh60" depart="126.60" departLane="best" departPos="random" departSpeed="max">
        <route edges="-223632526 -671642282 258728090#0 223632517 649040853#1 649040853#2"/>
    </vehicle>
    <vehicle id="veh61" depart="128.71" departLane="best" departPos="random" departSpeed="max">
        <route edges="-E4 649064895 E2 -223632520#2 -223632520#1 -223632525#0"/>
    </vehicle>
    <vehicle id="veh62" depart="130.82" departLane="best" departPos="random" departSpeed="max">
        <route edges="223632522 649040853#2"/>
    </vehicle>
    <vehicle id="veh64" depart="135.04" departLane="best" departPos="random" departSpeed="max">
        <route edges="-223632517 258728090#1 -649064896#1 649064895 E2 E3 649040853#1 -223632522"/>
    </vehicle>
    <vehicle id="veh65" depart="137.15" departLane="best" departPos="random" departSpeed="max">
        <route edges="-258728090#4 -258728090#3 -258728090#2 223632517 -E3"/>
    </vehicle>
    <vehicle id="veh66" depart="139.26" departLane="best" departPos="random" departSpeed="max">
        <route edges="258728090#0 258728090#1 -649064896#1 649064896#1 -258728090#2 -258728090#0 671642282 223632526"/>
    </vehicle>
    <vehicle id="veh67" depart="141.37" departLane="best" departPos="random" departSpeed="max">
        <route edges="-223632517 258728090#1 258728090#3 258728090#4"/>
    </vehicle>
    <vehicle id="veh68" depart="143.48" departLane="best" departPos="random" departSpeed="max">
        <route edges="-E1 223632520#2 -E2 -649064895 649064896#1"/>
    </vehicle>
    <vehicle id="veh69" depart="145.59" departLane="best" departPos="random" departSpeed="max">
        <route edges="223632520#2 E3 -223632517 -258728090#0 671642282"/>
    </vehicle>
    <vehicle id="veh70" depart="147.70" departLane="best" departPos="random" departSpeed="max">
        <route edges="223632525#0 223632525#1 -258728090#4 -258728090#3 -258728090#2 223632517"/>
    </vehicle>
    <vehicle id="veh72" depart="151.92" departLane="best" departPos="random" departSpeed="max">
        <route edges="223632520#0 223632525#1 -258728090#4"/>
    </vehicle>
    <vehicle id="veh73" depart="154.03" departLane="best" departPos="random" departSpeed="max">
        <route edges="-649036317#3 E1 -258728090#4 -258728090#3"/>
    </vehicle>
    <vehicle id="veh74" depart="156.14" departLane="best" departPos="random" departSpeed="max">
        <route edges="E2 E3 -223632517 -258728090#0"/>
    </vehicle>
    <vehicle id="veh75" depart="158.25" departLane="best" departPos="random" departSpeed="max">
        <route edges="223632520#0 223632520#1 E1 -223632525#2"/>
    </vehicle>
    <vehicle id="veh76" depart="160.36" departLane="best" departPos="random" departSpeed="max">
        <route edges="-258728090#4 -258728090#3 -258728090#2"/>
    </vehicle>
    <vehicle id="veh78" depart="164.58" departLane="best" departPos="random" departSpeed="max">
        <route edges="-223632526 -671642282"/>
    </vehicle>
    <vehicle id="veh79" depart="166.69" departLane="best" departPos="random" departSpeed="max">
        <route edges="223632522 -649040853#1 -E3 -E2 -649064895 649064896#1 -258728090#2 223632517"/>
    </vehicle>
    <vehicle id="veh80" depart="168.80" departLane="best" departPos="random" departSpeed="max">
        <route edges="258728090#1 -649064896#1 649064896#1"/>
    </vehicle>
    <vehicle id="veh81" depart="170.91" departLane="best" departPos="random" departSpeed="max">
        <route edges="-144943776 -649040853#1 -E3 -223632520#2 -223632520#1 223632525#1"/>
    </vehicle>
    <vehicle id="veh82" depart="173.02" departLane="best" departPos="random" departSpeed="max">
        <route edges="-223632526 -671642282 258728090#0 223632517 -E3 -223632520#2 -223632520#1 -223632520#0"/>
    </vehicle>
    <vehicle id="veh83" depart="175.13" departLane="best" departPos="random" departSpeed="max">
        <route edges="E3 -223632517 258728090#1 258728090#3 258728090#4 -E1 -223632520#1 223632525#1"/>
    </vehicle>
    <vehicle id="veh84" depart="177.24" departLane="best" departPos="random" departSpeed="max">
        <route edges="-E3 -223632520#2 E1 -258728090#4"/>
    </vehicle>
    <vehicle id="veh85" depart="179.35" departLane="best" departPos="random" departSpeed="max">
        <route edges="258728090#0 223632517 -E3 -E2 -649064895"/>
    </vehicle>
    <vehicle id="veh86" depart="181.46" departLane="best" departPos="random" departSpeed="max">
        <route edges="-E4 649064895 E2 -223632520#2 -223632520#1 223632525#1"/>
    </vehicle>
    <vehicle id="veh87" depart="183.57" departLane="best" departPos="random" departSpeed="max">
        <route edges="-649040853#1 -E3 -223632520#2 E1 -258728090#4"/>
    </vehicle>
    <vehicle id="veh88" depart="185.68" departLane="best" departPos="random" departSpeed="max">
        <route edges="-223632517 258728090#1 -649064896#1 649064895 E2 -223632520#2"/>
    </vehicle>
    <vehicle id="veh89" depart="187.79" departLane="best" departPos="random" departSpeed="max">
        <route edges="-671642282 258728090#0 223632517 -E3 -223632520#2 -223632520#1 223632525#1"/>
    </vehicle>
    <vehicle id="veh90" depart="189.90" departLane="best" departPos="random" departSpeed="max">
        <route edges="223632522 -649040853#1 -E3 -223632520#2 E1 -258728090#4"/>
    </vehicle>
    <vehicle id="veh91" depart="192.01" departLane="best" departPos="random" departSpeed="max">
        <route edges="223632517 -E3 -E2"/>
    </vehicle>
    <vehicle id="veh92" depart="194.12" departLane="best" departPos="random" departSpeed="max">
        <route edges="-223632520#1 223632525#1 -258728090#4 -E4 649064895 E2 E3 649040853#1 -223632522"/>
    </vehicle>
    <vehicle id="veh93" depart="196.23" departLane="best" departPos="random" departSpeed="max">
        <route edges="649064896#1 258728090#3 -E4 649064895 E2 E3"/>
    </vehicle>
    <vehicle id="veh94" depart="198.34" departLane="best" departPos="random" departSpeed="max">
        <route edges="223632520#0 223632520#1 223632520#2 E3 649040853#1 -223632522"/>
    </vehicle>
    <vehicle id="veh95" depart="200.45" departLane="best" departPos="random" departSpeed="max">
        <route edges="-144943776 -649040853#1 -E3 -E2 -649064895 E4 258728090#4 -E1"/>
    </vehicle>
    <vehicle id="veh96" depart="202.56" departLane="best" departPos="random" departSpeed="max">
        <route edges="223632520#1 223632520#2 E3 649040853#1 -223632522"/>
    </vehicle>
    <vehicle id="veh97" depart="204.67" departLane="best" departPos="random" departSpeed="max">
        <route edges="-223632526 -671642282 258728090#0 258728090#1 258728090#3 -E4"/>
    </vehicle>
    <vehicle id="veh98" depart="206.78" departLane="best" departPos="random" departSpeed="max">
        <route edges="-649036317#3 E1 -258728090#4 -258728090#3 -258728090#2 223632517"/>
    </vehicle>
    <vehicle id="veh99" depart="208.89" departLane="best" departPos="random" departSpeed="max">
        <route edges="223632525#0 223632525#1 -258728090#4 -258728090#3 -258728090#2"/>
    </vehicle>
    <vehicle id="veh100" depart="211.00" departLane="best" departPos="random" departSpeed="max">
        <route edges="223632522 -649040853#1 -E3 -E2 -649064895 649064895 E2 E3"/>
    </vehicle>
    <vehicle id="veh101" depart="213.11" departLane="best" departPos="random" departSpeed="max">
        <route edges="-671642282 258728090#0 223632517 -E3 -223632520#2 -223632520#1 -223632520#0"/>
    </vehicle>
    <vehicle id="veh102" depart="215.22" departLane="best" departPos="random" departSpeed="max">
        <route edges="-144943776 -223632522"/>
    </vehicle>
    <vehicle id="veh104" depart="219.44" departLane="best" departPos="random" departSpeed="max">
        <route edges="-649036317#3 223632520#2 E3 649040853#1 -223632522"/>
    </vehicle>
    <vehicle id="veh105" depart="221.55" departLane="best" departPos="random" departSpeed="max">
        <route edges="-144943776 -649040853#1 -E3 -E2 -649064895 649064895"/>
    </vehicle>
    <vehicle id="veh106" depart="223.66" departLane="best" departPos="random" departSpeed="max">
        <route edges="-649064896#1 E4 258728090#4 -223632525#2 -223632525#0"/>
    </vehicle>
    <vehicle id="veh107" depart="225.77" departLane="best" departPos="random" departSpeed="max">
        <route edges="E4 258728090#4 -E1 223632520#2 E3 649040853#1 649040853#2"/>
    </vehicle>
    <vehicle id="veh108" depart="227.88" departLane="best" departPos="random" departSpeed="max">
        <route edges="E1 -223632525#2 223632520#1 223632520#2"/>
    </vehicle>
    <vehicle id="veh109" depart="229.99" departLane="best" departPos="random" departSpeed="max">
        <route edges="-649036317#3 223632520#2 E3 649040853#1 -223632522"/>
    </vehicle>
    <vehicle id="veh110" depart="232.10" departLane="best" departPos="random" departSpeed="max">
        <route edges="-144943776 -649040853#1 -223632517"/>
    </vehicle>
    <vehicle id="veh111" depart="234.21" departLane="best" departPos="random" departSpeed="max">
        <route edges="223632525#0 223632520#1 E1 -223632525#2 -223632525#0"/>
    </vehicle>
    <vehicle id="veh113" depart="238.43" departLane="best" departPos="random" departSpeed="max">
        <route edges="223632522 -649040853#1 -E3 -223632520#2 -223632520#1 -223632520#0"/>
    </vehicle>
    <vehicle id="veh114" depart="240.54" departLane="best" departPos="random" departSpeed="max">
        <route edges="E2 E3 -223632517 258728090#1 -649064896#1"/>
    </vehicle>
    <vehicle id="veh115" depart="242.65" departLane="best" departPos="random" departSpeed="max">
        <route edges="-E2 -649064895 E4 258728090#4 -223632525#2 223632520#1"/>
    </vehicle>
    <vehicle id="veh116" depart="244.76" departLane="best" departPos="random" departSpeed="max">
        <route edges="-649064896#1 649064895 E2 -223632520#2 E1 -258728090#4"/>
    </vehicle>
    <vehicle id="veh118" depart="248.98" departLane="best" departPos="random" departSpeed="max">
        <route edges="-223632526 -671642282 258728090#0 223632517 -E3 -223632520#2 649036317#3"/>
    </vehicle>
    <vehicle id="veh119" depart="251.09" departLane="best" departPos="random" departSpeed="max">
        <route edges="223632520#0 223632520#1 649036317#3"/>
    </vehicle>
    <vehicle id="veh120" depart="253.20" departLane="best" departPos="random" departSpeed="max">
        <route edges="-258728090#2 223632517 649040853#1 649040853#2"/>
    </vehicle>
    <vehicle id="veh121" depart="255.31" departLane="best" departPos="random" departSpeed="max">
        <route edges="223632520#1 649036317#3"/>
    </vehicle>
    <vehicle id="veh122" depart="257.42" departLane="best" departPos="random" departSpeed="max">
        <route edges="223632520#0 223632520#1 223632520#2 E3 -223632517 -258728090#0 671642282 223632526"/>
    </vehicle>
    <vehicle id="veh123" depart="259.53" departLane="best" departPos="random" departSpeed="max">
        <route edges="223632517 -E3 -223632520#2 649036317#3"/>
    </vehicle>
    <vehicle id="veh124" depart="261.64" departLane="best" departPos="random" departSpeed="max">
        <route edges="223632525#0 223632520#1 223632520#2 E3 649040853#1 649040853#2"/>
    </vehicle>
    <vehicle id="veh125" depart="263.75" departLane="best" departPos="random" departSpeed="max">
        <route edges="E2 -223632520#2 -223632520#1 -223632520#0"/>
    </vehicle>
    <vehicle id="veh126" depart="265.86" departLane="best" departPos="random" departSpeed="max">
        <route edges="258728090#1 -649064896#1 649064895"/>
    </vehicle>
    <vehicle id="veh127" depart="267.97" departLane="best" departPos="random" departSpeed="max">
        <route edges="-649036317#3 223632520#2 E3 649040853#1"/>
    </vehicle>
    <vehicle id="veh128" depart="270.08" departLane="best" departPos="random" departSpeed="max">
        <route edges="-223632525#2 223632520#1 223632520#2 -E2 -649064895 E4"/>
    </vehicle>
    <vehicle id="veh129" depart="272.19" departLane="best" departPos="random" departSpeed="max">
        <route edges="-223632526 -671642282 258728090#0 258728090#1 -649064896#1"/>
    </vehicle>
    <vehicle id="veh130" depart="274.30" departLane="best" departPos="random" departSpeed="max">
        <route edges="-649036317#3 E1 -223632525#2 223632520#1 649036317#3"/>
    </vehicle>
    <vehicle id="veh131" depart="276.41" departLane="best" departPos="random" departSpeed="max">
        <route edges="-E2 -649064895 649064895 E2 E3 -223632517 258728090#1"/>
    </vehicle>
    <vehicle id="veh132" depart="278.52" departLane="best" departPos="random" departSpeed="max">
        <route edges="-223632526 -671642282 258728090#0 258728090#1"/>
    </vehicle>
    <vehicle id="veh133" depart="280.63" departLane="best" departPos="random" departSpeed="max">
        <route edges="223632517 649040853#1 649040853#2"/>
    </vehicle>
    <vehicle id="veh134" depart="282.74" departLane="best" departPos="random" departSpeed="max">
        <route edges="223632525#0 223632520#1 223632520#2 E3 -223632517 -258728090#0 671642282 223632526"/>
    </vehicle>
    <vehicle id="veh135" depart="284.85" departLane="best" departPos="random" departSpeed="max">
        <route edges="223632520#0 223632520#1 E1 -223632525#2 -223632520#0"/>
    </vehicle>
    <vehicle id="veh136" depart="286.96" departLane="best" departPos="random" departSpeed="max">
        <route edges="258728090#3 258728090#4 -E1"/>
    </vehicle>
    <vehicle id="veh137" depart="289.07" departLane="best" departPos="random" departSpeed="max">
        <route edges="-671642282 258728090#0 223632517 649040853#1 -223632522"/>
    </vehicle>
    <vehicle id="veh138" depart="291.18" departLane="best" departPos="random" departSpeed="max">
        <route edges="-649036317#3 E1 -258728090#4 258728090#4"/>
    </vehicle>
    <vehicle id="veh139" depart="293.29" departLane="best" departPos="random" departSpeed="max">
        <route edges="223632520#0 223632520#1 223632520#2 E3"/>
    </vehicle>
    <vehicle id="veh140" depart="295.40" departLane="best" departPos="random" departSpeed="max">
        <route edges="223632520#0 223632520#1 223632520#2 E3 -223632517 -258728090#0 671642282 223632526"/>
    </vehicle>
    <vehicle id="veh141" depart="297.51" departLane="best" departPos="random" departSpeed="max">
        <route edges="-258728090#2 223632517 -E3 -223632520#2 -223632520#1 223632525#1"/>
    </vehicle>
    <vehicle id="veh142" depart="299.62" departLane="best" departPos="random" departSpeed="max">
        <route edges="-258728090#2 223632517 649040853#1 -223632522"/>
    </vehicle>
    <vehicle id="veh143" depart="301.73" departLane="best" departPos="random" departSpeed="max">
        <route edges="E3 -223632517 258728090#1 258728090#3 258728090#4 -223632525#2 -223632520#0"/>
    </vehicle>
    <vehicle id="veh144" depart="303.84" departLane="best" departPos="random" departSpeed="max">
        <route edges="223632517 -E3 -E2 -649064895 649064896#1 -258728090#2 -258728090#0"/>
    </vehicle>
    <vehicle id="veh145" depart="305.95" departLane="best" departPos="random" departSpeed="max">
        <route edges="223632520#2 E3 -223632517 -258728090#0 671642282 223632526"/>
    </vehicle>
    <vehicle id="veh146" depart="308.06" departLane="best" departPos="random" departSpeed="max">
        <route edges="-671642282 258728090#0 223632517 649040853#1 649040853#2"/>
    </vehicle>
    <vehicle id="veh147" depart="310.17" departLane="best" departPos="random" departSpeed="max">
        <route edges="-258728090#4 258728090#4 -223632525#2 -223632520#0"/>
    </vehicle>
    <vehicle id="veh148" depart="312.28" departLane="best" departPos="random" departSpeed="max">
        <route edges="-223632525#2 223632520#1 223632520#2 E3 -223632517 -258728090#0 671642282 223632526"/>
    </vehicle>
    <vehicle id="veh149" depart="314.39" departLane="best" departPos="random" departSpeed="max">
        <route edges="-223632526 -671642282 258728090#0 258728090#1 258728090#3 258728090#4 -223632525#2"/>
    </vehicle>
    <vehicle id="veh150" depart="316.50" departLane="best" departPos="random" departSpeed="max">
        <route edges="258728090#1 258728090#3"/>
    </vehicle>
    <vehicle id="veh151" depart="318.61" departLane="best" departPos="random" departSpeed="max">
        <route edges="E1 -223632525#2 223632520#1 649036317#3"/>
    </vehicle>
    <vehicle id="veh152" depart="320.72" departLane="best" departPos="random" departSpeed="max">
        <route edges="223632520#0 223632520#1 223632520#2 E3 649040853#1 649040853#2"/>
    </vehicle>
    <vehicle id="veh154" depart="324.94" departLane="best" departPos="random" departSpeed="max">
        <route edges="-649036317#3 223632520#2 E3 -223632517 258728090#1"/>
    </vehicle>
    <vehicle id="veh155" depart="327.05" departLane="best" departPos="random" departSpeed="max">
        <route edges="-223632526 -671642282 258728090#0 223632517 649040853#1 649040853#2"/>
    </vehicle>
    <vehicle id="veh156" depart="329.16" departLane="best" departPos="random" departSpeed="max">
        <route edges="-223632520#1 223632525#1 -258728090#4 -E4 649064895 E2 E3 649040853#1 649040853#2"/>
    </vehicle>
    <vehicle id="veh157" depart="331.27" departLane="best" departPos="random" departSpeed="max">
        <route edges="E4 258728090#4 -E1 223632520#2 E3 649040853#1 649040853#2"/>
    </vehicle>
    <vehicle id="veh158" depart="333.38" departLane="best" departPos="random" departSpeed="max">
        <route edges="258728090#0 223632517 649040853#1 -223632522"/>
    </vehicle>
    <vehicle id="veh160" depart="337.60" departLane="best" departPos="random" departSpeed="max">
        <route edges="E3 -223632517 258728090#1 -649064896#1 649064896#1 -258728090#2 223632517 -E3"/>
    </vehicle>
    <vehicle id="veh161" depart="339.71" departLane="best" departPos="random" departSpeed="max">
        <route edges="E4 258728090#4 -223632525#2 -223632525#0"/>
    </vehicle>
    <vehicle id="veh162" depart="341.82" departLane="best" departPos="random" departSpeed="max">
        <route edges="223632525#0 223632520#1 223632520#2 E3 649040853#1 -223632522"/>
    </vehicle>
    <vehicle id="veh163" depart="343.93" departLane="best" departPos="random" departSpeed="max">
        <route edges="-223632520#2 E1 -258728090#4 -E4 649064895 E2 E3 649040853#1 649040853#2"/>
    </vehicle>
    <vehicle id="veh164" depart="346.04" departLane="best" departPos="random" departSpeed="max">