<?xml version="1.0" encoding="UTF-8"?>

<!-- generated on 2025-05-11 05:33:11.009693 by randomTrips.py v1_22_0+0002-63e50f52594
<configuration>
    <net-file value="E:/licenta/oras-mic/2025-05-08-13-35-40\osm.net.xml"/>
    <output-trip-file value="E:/licenta/oras-mic/2025-05-08-13-35-40\trips.trips.xml"/>
    <route-file value="E:/licenta/oras-mic/2025-05-08-13-35-40\generated_routes\routes_worker0_cd407261.rou.xml"/>
    <prefix value="veh"/>
    <trip-attributes value="departLane=&quot;best&quot; departSpeed=&quot;max&quot; departPos=&quot;random&quot;"/>
    <fringe-factor value="2.0"/>
    <seed value="21572"/>
    <end value="600.0"/>
    <period value="2.22"/>
</configuration>
-->

<!-- generated on 2025-05-11 05:33:10 by Eclipse SUMO duarouter Version 1.22.0
<duarouterConfiguration xmlns:xsi="http://www.w3.org/2001/XMLSchema-instance" xsi:noNamespaceSchemaLocation="http://sumo.dlr.de/xsd/duarouterConfiguration.xsd">

    <input>
        <net-file value="E:/licenta/oras-mic/2025-05-08-13-35-40\osm.net.xml"/>
        <route-files value="E:/licenta/oras-mic/2025-05-08-13-35-40\trips.trips.xml"/>
    </input>

    <output>
        <output-file value="E:/licenta/oras-mic/2025-05-08-13-35-40\generated_routes\routes_worker0_cd407261.rou.xml"/>
        <alternatives-output value="NUL"/>
    </output>

    <time>
        <begin value="0"/>
        <end value="600.0"/>
    </time>

    <report>
        <no-warnings value="true"/>
        <ignore-errors value="true"/>
        <no-step-log value="true"/>
    </report>

</duarouterConfiguration>
-->

<routes xmlns:xsi="http://www.w3.org/2001/XMLSchema-instance" xsi:noNamespaceSchemaLocation="http://sumo.dlr.de/xsd/routes_file.xsd">
    <vehicle id="veh0" depart="0.00" departLane="best" departPos="random" departSpeed="max">
        <route edges="-223632520#1 223632525#1 -258728090#4 -258728090#3 -258728090#2 -258728090#0 671642282 223632526"/>
    </vehicle>
    <vehicle id="veh1" depart="2.42" departLane="best" departPos="random" departSpeed="max">
        <route edges="258728090#0 223632517 -E3 -E2"/>
    </vehicle>
    <vehicle id="veh3" depart="7.26" departLane="best" departPos="random" departSpeed="max">
        <route edges="-144943776 -649040853#1 -E3 -E2 -649064895 E4 258728090#4 -223632525#2 223632520#1"/>
    </vehicle>
    <vehicle id="veh4" depart="9.68" departLane="best" departPos="random" departSpeed="max">
        <route edges="649064895 E2 E3 -223632517 -258728090#0 671642282 223632526"/>
    </vehicle>
    <vehicle id="veh5" depart="12.10" departLane="best" departPos="random" departSpeed="max">
        <route edges="E2 -223632520#2 649036317#3"/>
    </vehicle>
    <vehicle id="veh6" depart="14.52" departLane="best" departPos="random" departSpeed="max">
        <route edges="-144943776 -649040853#1 -E3 -223632520#2 E1"/>
    </vehicle>
    <vehicle id="veh7" depart="16.94" departLane="best" departPos="random" departSpeed="max">
        <route edges="258728090#3 258728090#4 -E1 223632520#2 -E2"/>
    </vehicle>
    <vehicle id="veh9" depart="21.78" departLane="best" departPos="random" departSpeed="max">
        <route edges="-649064895 649064895 E2 -223632520#2 E1 -258728090#4"/>
    </vehicle>
    <vehicle id="veh10" depart="24.20" departLane="best" departPos="random" departSpeed="max">
        <route edges="649040853#1 649040853#2"/>
    </vehicle>
    <vehicle id="veh11" depart="26.62" departLane="best" departPos="random" departSpeed="max">
        <route edges="E2"/>
    </vehicle>
    <vehicle id="veh12" depart="29.04" departLane="best" departPos="random" departSpeed="max">
        <route edges="-671642282 258728090#0 223632517 -E3 -223632520#2 -223632520#1 223632525#1"/>
    </vehicle>
    <vehicle id="veh14" depart="33.88" departLane="best" departPos="random" departSpeed="max">
        <route edges="-649036317#3 223632520#2 -E2 -649064895 649064896#1 258728090#3"/>
    </vehicle>
    <vehicle id="veh15" depart="36.30" departLane="best" departPos="random" departSpeed="max">
        <route edges="-223632526 -671642282 258728090#0 258728090#1 -649064896#1 649064896#1 -258728090#2 -258728090#0 671642282 223632526"/>
    </vehicle>
    <vehicle id="veh16" depart="38.72" departLane="best" departPos="random" departSpeed="max">
        <route edges="-649064895 649064895 E2 E3 649040853#1 649040853#2"/>
    </vehicle>
    <vehicle id="veh18" depart="43.56" departLane="best" departPos="random" departSpeed="max">
        <route edges="-223632526 -671642282 258728090#0 223632517 -E3 -223632520#2 -223632520#1 -223632520#0"/>
    </vehicle>
    <vehicle id="veh19" depart="45.98" departLane="best" departPos="random" departSpeed="max">
        <route edges="649064896#1 258728090#3 258728090#4 -223632525#2 -223632520#0"/>
    </vehicle>
    <vehicle id="veh20" depart="48.40" departLane="best" departPos="random" departSpeed="max">
        <route edges="258728090#1 -649064896#1 649064895 E2 E3 649040853#1 649040853#2"/>
    </vehicle>
    <vehicle id="veh22" depart="53.24" departLane="best" departPos="random" departSpeed="max">
        <route edges="223632520#0 223632520#1 649036317#3"/>
    </vehicle>
    <vehicle id="veh24" depart="58.08" departLane="best" departPos="random" departSpeed="max">
        <route edges="E2 -223632520#2 E1 -223632525#2 223632520#1 223632520#2 -E2"/>
    </vehicle>
    <vehicle id="veh25" depart="60.50" departLane="best" departPos="random" departSpeed="max">
        <route edges="223632520#0 223632525#1 -258728090#4 -E4 649064895"/>
    </vehicle>
    <vehicle id="veh26" depart="62.92" departLane="best" departPos="random" departSpeed="max">
        <route edges="223632520#0 223632520#1 E1 -223632525#2 -223632520#0"/>
    </vehicle>
    <vehicle id="veh27" depart="65.34" departLane="best" departPos="random" departSpeed="max">
        <route edges="-258728090#4 258728090#4 -E1 -223632520#1"/>
    </vehicle>
    <vehicle id="veh28" depart="67.76" departLane="best" departPos="random" departSpeed="max">
        <route edges="-223632526 -671642282 258728090#0 223632517 -E3 -E2"/>
    </vehicle>
    <vehicle id="veh29" depart="70.18" departLane="best" departPos="random" departSpeed="max">
        <route edges="223632520#2 -E2 -649064895 649064896#1"/>
    </vehicle>
    <vehicle id="veh30" depart="72.60" departLane="best" departPos="random" departSpeed="max">
        <route edges="-223632525#2 223632520#1 223632520#2 E3 649040853#1 649040853#2"/>
    </vehicle>
    <vehicle id="veh32" depart="77.44" departLane="best" departPos="random" departSpeed="max">
        <route edges="223632522 -649040853#1 -223632517 -258728090#0 671642282 223632526"/>
    </vehicle>
    <vehicle id="veh33" depart="79.86" departLane="best" departPos="random" departSpeed="max">
        <route edges="223632522 -649040853#1 -E3 -E2 -649064895 649064896#1 258728090#3"/>
    </vehicle>
    <vehicle id="veh35" depart="84.70" departLane="best" departPos="random" departSpeed="max">
        <route edges="-671642282 258728090#0 223632517 649040853#1 649040853#2"/>
    </vehicle>
    <vehicle id="veh37" depart="89.54" departLane="best" departPos="random" departSpeed="max">
        <route edges="-223632520#2 E1 -258728090#4 -258728090#3 -649064896#1 E4"/>
    </vehicle>
    <vehicle id="veh38" depart="91.96" departLane="best" departPos="random" departSpeed="max">
        <route edges="-649036317#3 223632520#2 -E2 -649064895 649064896#1 258728090#3"/>
    </vehicle>
    <vehicle id="veh39" depart="94.38" departLane="best" departPos="random" departSpeed="max">
        <route edges="-223632520#1 223632525#1 -258728090#4 -258728090#3 -258728090#2 -258728090#0 671642282 223632526"/>
    </vehicle>
    <vehicle id="veh40" depart="96.80" departLane="best" departPos="random" departSpeed="max">
        <route edges="-258728090#3 -649064896#1 649064895 -649064895"/>
    </vehicle>
    <vehicle id="veh41" depart="99.22" departLane="best" departPos="random" departSpeed="max">
        <route edges="E1 -258728090#4 -E4 649064895 E2 -223632520#2"/>
    </vehicle>
    <vehicle id="veh42" depart="101.64" departLane="best" departPos="random" departSpeed="max">
        <route edges="-223632520#1 223632525#1 -258728090#4 -E4 649064895 E2 E3 649040853#1"/>
    </vehicle>
    <vehicle id="veh45" depart="108.90" departLane="best" departPos="random" departSpeed="max">
        <route edges="-144943776 -649040853#1 -E3 -E2 -649064895 649064895 E2 E3 649040853#1 649040853#2"/>
    </vehicle>
    <vehicle id="veh46" depart="111.32" departLane="best" departPos="random" departSpeed="max">
        <route edges="-649036317#3 E1 -258728090#4 -E4 649064895 E2 -223632520#2"/>
    </vehicle>
    <vehicle id="veh47" depart="113.74" departLane="best" departPos="random" departSpeed="max">
        <route edges="223632525#0 -223632520#0"/>
    </vehicle>
    <vehicle id="veh48" depart="116.16" departLane="best" departPos="random" departSpeed="max">
        <route edges="-223632526 -671642282 258728090#0 223632517 -E3 -223632520#2 -223632520#1 -223632525#0"/>
    </vehicle>
    <vehicle id="veh49" depart="118.58" departLane="best" departPos="random" departSpeed="max">
        <route edges="-E1 223632520#2 -E2 -649064895 649064896#1 258728090#3"/>
    </vehicle>
    <vehicle id="veh51" depart="123.42" departLane="best" departPos="random" departSpeed="max">
        <route edges="223632522 -649040853#1 -E3"/>
    </vehicle>
    <vehicle id="veh52" depart="125.84" departLane="best" departPos="random" departSpeed="max">
        <route edges="223632520#0 223632520#1 E1 -223632525#2 -223632520#0"/>
    </vehicle>
    <vehicle id="veh53" depart="128.26" departLane="best" departPos="random" departSpeed="max">
        <route edges="-E4 649064896#1 258728090#3"/>
    </vehicle>
    <vehicle id="veh54" depart="130.68" departLane="best" departPos="random" departSpeed="max">
        <route edges="-144943776 -649040853#1 -E3 -223632520#2 -223632520#1 -223632525#0"/>
    </vehicle>
    <vehicle id="veh55" depart="133.10" departLane="best" departPos="random" departSpeed="max">
        <route edges="E4 -258728090#3 -258728090#2 223632517"/>
    </vehicle>
    <vehicle id="veh56" depart="135.52" departLane="best" departPos="random" departSpeed="max">
        <route edges="-E2 -649064895"/>
    </vehicle>
    <vehicle id="veh57" depart="137.94" departLane="best" departPos="random" departSpeed="max">
        <route edges="-649036317#3 E1 -258728090#4 -258728090#3 -649064896#1"/>
    </vehicle>
    <vehicle id="veh58" depart="140.36" departLane="best" departPos="random" departSpeed="max">
        <route edges="-649040853#1 -E3 -E2 -649064895 E4"/>
    </vehicle>
    <vehicle id="veh59" depart="142.78" departLane="best" departPos="random" departSpeed="max">
        <route edges="223632520#0 223632520#1 223632520#2 -E2 -649064895 E4"/>
    </vehicle>
    <vehicle id="veh60" depart="145.20" departLane="best" departPos="random" departSpeed="max">
        <route edges="-E3 -E2 -649064895 E4 258728090#4 -223632525#2 223632520#1"/>
    </vehicle>
    <vehicle id="veh61" depart="147.62" departLane="best" departPos="random" departSpeed="max">
        <route edges="223632522 -649040853#1 -E3 -223632520#2 E1"/>
    </vehicle>
    <vehicle id="veh62" depart="150.04" departLane="best" departPos="random" departSpeed="max">
        <route edges="-258728090#4 -258728090#3 -258728090#2 223632517 -E3"/>
    </vehicle>
    <vehicle id="veh63" depart="152.46" departLane="best" departPos="random" departSpeed="max">
        <route edges="223632520#0 223632520#1 649036317#3"/>
    </vehicle>
    <vehicle id="veh64" depart="154.88" departLane="best" departPos="random" departSpeed="max">
        <route edges="223632520#1 223632520#2 -E2 -649064895 649064895 E2"/>
    </vehicle>
    <vehicle id="veh65" depart="157.30" departLane="best" departPos="random" departSpeed="max">
        <route edges="-649064896#1 E4 258728090#4 -223632525#2 -223632525#0"/>
    </vehicle>
    <vehicle id="veh66" depart="159.72" departLane="best" departPos="random" departSpeed="max">
        <route edges="-258728090#3 -649064896#1 E4 258728090#4 -223632525#2 -223632520#0"/>
    </vehicle>
    <vehicle id="veh68" depart="164.56" departLane="best" departPos="random" departSpeed="max">
        <route edges="-258728090#4 258728090#4 -E1 649036317#3"/>
    </vehicle>
    <vehicle id="veh70" depart="169.40" departLane="best" departPos="random" departSpeed="max">
        <route edges="-223632520#2 E1 -258728090#4 -258728090#3 -258728090#2 223632517 -E3"/>
    </vehicle>
    <vehicle id="veh71" depart="171.82" departLane="best" departPos="random" departSpeed="max">
        <route edges="223632522 -649040853#1 -E3 -E2 -649064895 E4 258728090#4 -223632525#2 223632520#1"/>
    </vehicle>
    <vehicle id="veh72" depart="174.24" departLane="best" departPos="random" departSpeed="max">
        <route edges="223632517 -E3 -223632520#2 -223632520#1 -223632525#0"/>
    </vehicle>
    <vehicle id="veh73" depart="176.66" departLane="best" departPos="random" departSpeed="max">
        <route edges="649040853#1 649040853#2"/>
    </vehicle>
    <vehicle id="veh75" depart="181.50" departLane="best" departPos="random" departSpeed="max">
        <route edges="-258728090#2 223632517 -E3 -223632520#2 649036317#3"/>
    </vehicle>
    <vehicle id="veh76" depart="183.92" departLane="best" departPos="random" departSpeed="max">
        <route edges="-649036317#3 E1 -258728090#4 -E4"/>
    </vehicle>
    <vehicle id="veh77" depart="186.34" departLane="best" departPos="random" departSpeed="max">
        <route edges="-649064896#1"/>
    </vehicle>
    <vehicle id="veh78" depart="188.76" departLane="best" departPos="random" departSpeed="max">
        <route edges="223632525#0 223632525#1"/>
    </vehicle>
    <vehicle id="veh79" depart="191.18" departLane="best" departPos="random" departSpeed="max">
        <route edges="-671642282 258728090#0 258728090#1 258728090#3"/>
    </vehicle>
    <vehicle id="veh80" depart="193.60" departLane="best" departPos="random" departSpeed="max">
        <route edges="-E1 223632520#2 E3 -223632517 -258728090#0 671642282 223632526"/>
    </vehicle>
    <vehicle id="veh81" depart="196.02" departLane="best" departPos="random" departSpeed="max">
        <route edges="223632525#0 223632525#1 -258728090#4 -258728090#3 -258728090#2 223632517 -E3"/>
    </vehicle>
    <vehicle id="veh82" depart="198.44" departLane="best" departPos="random" departSpeed="max">
        <route edges="-649064896#1 649064895 E2 -223632520#2 E1 -258728090#4"/>
    </vehicle>
    <vehicle id="veh83" depart="200.86" departLane="best" departPos="random" departSpeed="max">
        <route edges="258728090#3 -E4 649064895 E2 E3 -223632517"/>
    </vehicle>
    <vehicle id="veh84" depart="203.28" departLane="best" departPos="random" departSpeed="max">
        <route edges="-649064895 E4 258728090#4 -223632525#2 -223632520#0"/>
    </vehicle>
    <vehicle id="veh86" depart="208.12" departLane="best" departPos="random" departSpeed="max">
        <route edges="-144943776 -649040853#1 -E3 -E2 -649064895"/>
    </vehicle>
    <vehicle id="veh87" depart="210.54" departLane="best" departPos="random" departSpeed="max">
        <route edges="-649036317#3 E1 -258728090#4 -258728090#3 -258728090#2"/>
    </vehicle>
    <vehicle id="veh88" depart="212.96" departLane="best" departPos="random" departSpeed="max">
        <route edges="223632522 -649040853#1 -E3 -223632520#2 -223632520#1 -223632525#0"/>
    </vehicle>
    <vehicle id="veh89" depart="215.38" departLane="best" departPos="random" departSpeed="max">
        <route edges="E1 -258728090#4 -E4 649064895"/>
    </vehicle>
    <vehicle id="veh90" depart="217.80" departLane="best" departPos="random" departSpeed="max">
        <route edges="223632520#0 223632520#1 223632520#2 E3 -223632517 -258728090#0 671642282"/>
    </vehicle>
    <vehicle id="veh91" depart="220.22" departLane="best" departPos="random" departSpeed="max">
        <route edges="223632520#2 -E2 -649064895 E4 258728090#4 -223632525#2 -223632520#0"/>
    </vehicle>
    <vehicle id="veh92" depart="222.64" departLane="best" departPos="random" departSpeed="max">
        <route edges="258728090#3 258728090#4 -E1 223632520#2"/>
    </vehicle>
    <vehicle id="veh93" depart="225.06" departLane="best" departPos="random" departSpeed="max">
        <route edges="223632525#0 223632520#1 223632520#2 E3 649040853#1 -223632522"/>
    </vehicle>
    <vehicle id="veh94" depart="227.48" departLane="best" departPos="random" departSpeed="max">
        <route edges="223632525#0 223632525#1 -258728090#4 258728090#4"/>
    </vehicle>
    <vehicle id="veh95" depart="229.90" departLane="best" departPos="random" departSpeed="max">
        <route edges="-649064896#1 E4 258728090#4 -223632525#2 -223632520#0"/>
    </vehicle>
    <vehicle id="veh96" depart="232.32" departLane="best" departPos="random" departSpeed="max">
        <route edges="223632520#0 -223632525#0"/>
    </vehicle>
    <vehicle id="veh97" depart="234.74" departLane="best" departPos="random" departSpeed="max">
        <route edges="-649040853#1 -E3 -E2 -649064895 E4 -258728090#3 -649064896#1"/>
    </vehicle>
    <vehicle id="veh98" depart="237.16" departLane="best" departPos="random" departSpeed="max">
        <route edges="-223632517 -258728090#0 671642282 223632526"/>
    </vehicle>
    <vehicle id="veh99" depart="239.58" departLane="best" departPos="random" departSpeed="max">
        <route edges="-144943776 -649040853#1 -E3 -E2 -649064895 649064896#1 -258728090#2"/>
    </vehicle>
    <vehicle id="veh100" depart="242.00" departLane="best" departPos="random" departSpeed="max">
        <route edges="223632517 -E3 -E2 -649064895 649064896#1 -258728090#2 -258728090#0"/>
    </vehicle>
    <vehicle id="veh101" depart="244.42" departLane="best" departPos="random" departSpeed="max">
        <route edges="-E1 -223632520#1 223632525#1 -258728090#4 -258728090#3 -649064896#1"/>
    </vehicle>
    <vehicle id="veh102" depart="246.84" departLane="best" departPos="random" departSpeed="max">
        <route edges="E3 -223632517 258728090#1 -649064896#1 649064896#1 -258728090#2 223632517"/>
    </vehicle>
    <vehicle id="veh103" depart="249.26" departLane="best" departPos="random" departSpeed="max">
        <route edges="-649036317#3 E1 -258728090#4 -258728090#3 -649064896#1"/>
    </vehicle>
    <vehicle id="veh104" depart="251.68" departLane="best" departPos="random" departSpeed="max">
        <route edges="-671642282 258728090#0 258728090#1 -649064896#1 649064896#1 -258728090#2 -258728090#0 671642282 223632526"/>
    </vehicle>
    <vehicle id="veh105" depart="254.10" departLane="best" departPos="random" departSpeed="max">
        <route edges="-649064895 E4 258728090#4 -E1 649036317#3"/>
    </vehicle>
    <vehicle id="veh106" depart="256.52" departLane="best" departPos="random" departSpeed="max">
        <route edges="-223632517 -258728090#0 671642282"/>
    </vehicle>
    <vehicle id="veh107" depart="258.94" departLane="best" departPos="random" departSpeed="max">
        <route edges="223632522 -649040853#1"/>
    </vehicle>
    <vehicle id="veh109" depart="263.78" departLane="best" departPos="random" departSpeed="max">
        <route edges="649064895 E2 -223632520#2 E1 -258728090#4"/>
    </vehicle>
    <vehicle id="veh110" depart="266.20" departLane="best" departPos="random" departSpeed="max">
        <route edges="-223632520#2 -223632520#1 -223632525#0"/>
    </vehicle>
    <vehicle id="veh111" depart="268.62" departLane="best" departPos="random" departSpeed="max">
        <route edges="258728090#1 -649064896#1 649064896#1 -258728090#2 223632517"/>
    </vehicle>
    <vehicle id="veh112" depart="271.04" departLane="best" departPos="random" departSpeed="max">
        <route edges="-223632526 -671642282 258728090#0 258728090#1 -649064896#1 649064896#1 -258728090#2 -258728090#0"/>
    </vehicle>
    <vehicle id="veh113" depart="273.46" departLane="best" departPos="random" departSpeed="max">
        <route edges="223632525#0 -223632520#0"/>
    </vehicle>
    <vehicle id="veh114" depart="275.88" departLane="best" departPos="random" departSpeed="max">
        <route edges="-223632526 -671642282"/>
    </vehicle>
    <vehicle id="veh116" depart="280.72" departLane="best" departPos="random" departSpeed="max">
        <route edges="-649036317#3 223632520#2 -E2 -649064895 649064896#1"/>
    </vehicle>
    <vehicle id="veh118" depart="285.56" departLane="best" departPos="random" departSpeed="max">
        <route edges="649064896#1 -258728090#2 223632517 -E3"/>
    </vehicle>
    <vehicle id="veh120" depart="290.40" departLane="best" departPos="random" departSpeed="max">
        <route edges="649064895 -649064895 E4 258728090#4 -E1 223632520#2 -E2"/>
    </vehicle>
    <vehicle id="veh121" depart="292.82" departLane="best" departPos="random" departSpeed="max">
        <route edges="-223632526 -671642282 258728090#0 258728090#1 -649064896#1 E4 -258728090#3"/>
    </vehicle>
    <vehicle id="veh122" depart="295.24" departLane="best" departPos="random" departSpeed="max">
        <route edges="258728090#4 -E1 223632520#2 -E2 -649064895 E4"/>
    </vehicle>
    <vehicle id="veh123" depart="297.66" departLane="best" departPos="random" departSpeed="max">
        <route edges="-144943776 -649040853#1 -E3 -E2 -649064895 649064896#1"/>
    </vehicle>
    <vehicle id="veh124" depart="300.08" departLane="best" departPos="random" departSpeed="max">
        <route edges="-144943776 -649040853#1 -E3 -E2 -649064895"/>
    </vehicle>
    <vehicle id="veh125" depart="302.50" departLane="best" departPos="random" departSpeed="max">
        <route edges="-223632526 -671642282 258728090#0 258728090#1 -649064896#1 649064896#1 -258728090#2 -258728090#0 671642282 223632526"/>
    </vehicle>
    <vehicle id="veh126" depart="304.92" departLane="best" departPos="random" departSpeed="max">
        <route edges="-E4 649064895 E2 -223632520#2"/>
    </vehicle>
    <vehicle id="veh127" depart="307.34" departLane="best" departPos="random" departSpeed="max">
        <route edges="223632522 -649040853#1 -E3 -223632520#2 E1 -258728090#4"/>
    </vehicle>
    <vehicle id="veh128" depart="309.76" departLane="best" departPos="random" departSpeed="max">
        <route edges="-258728090#2 223632517"/>
    </vehicle>
    <vehicle id="veh129" depart="312.18" departLane="best" departPos="random" departSpeed="max">
        <route edges="223632522 -649040853#1 -E3 -223632520#2 E1 -258728090#4"/>
    </vehicle>
    <vehicle id="veh130" depart="314.60" departLane="best" departPos="random" departSpeed="max">
        <route edges="-144943776 -649040853#1 -E3 -E2"/>
    </vehicle>
    <vehicle id="veh131" depart="317.02" departLane="best" departPos="random" departSpeed="max">
        <route edges="-223632520#2 E1 -258728090#4 -E4 649064895 E2 E3 649040853#1"/>
    </vehicle>
    <vehicle id="veh132" depart="319.44" departLane="best" departPos="random" departSpeed="max">
        <route edges="-223632520#1 223632525#1 -258728090#4 -E4"/>
    </vehicle>
    <vehicle id="veh134" depart="324.28" departLane="best" departPos="random" departSpeed="max">
        <route edges="223632525#0 223632520#1 223632520#2 E3 649040853#1 649040853#2"/>
    </vehicle>
    <vehicle id="veh135" depart="326.70" departLane="best" departPos="random" departSpeed="max">
        <route edges="-E3 -223632520#2 649036317#3"/>
    </vehicle>
    <vehicle id="veh136" depart="329.12" departLane="best" departPos="random" departSpeed="max">
        <route edges="258728090#4 -E1"/>
    </vehicle>
    <vehicle id="veh137" depart="331.54" departLane="best" departPos="random" departSpeed="max">
        <route edges="E3 -223632517 258728090#1 -649064896#1 649064895 E2 -223632520#2 E1 -258728090#4"/>
    </vehicle>
    <vehicle id="veh139" depart="336.38" departLane="best" departPos="random" departSpeed="max">
        <route edges="649064896#1 258728090#3 -E4 649064895"/>
    </vehicle>
    <vehicle id="veh140" depart="338.80" departLane="best" departPos="random" departSpeed="max">
        <route edges="223632525#0 223632525#1 -258728090#4 -258728090#3 -258728090#2 223632517"/>
    </vehicle>
    <vehicle id="veh141" depart="341.22" departLane="best" departPos="random" departSpeed="max">
        <route edges="-223632526 -671642282 258728090#0 258728090#1 -649064896#1 649064895 E2"/>
    </vehicle>
    <vehicle id="veh142" depart="343.64" departLane="best" departPos="random" departSpeed="max">
        <route edges="-649036317#3 223632520#2 -E2 -649064895 649064896#1"/>
    </vehicle>
    <vehicle id="veh143" depart="346.06" departLane="best" departPos="random" departSpeed="max">
        <route edges="-649064895"/>
    </vehicle>
    <vehicle id="veh144" depart="348.48" departLane="best" departPos="random" departSpeed="max">
        <route edges="-223632520#2 E1 -258728090#4 -E4 649064895"/>
    </vehicle>
    <vehicle id="veh145" depart="350.90" departLane="best" departPos="random" departSpeed="max">
        <route edges="-649064896#1 E4 258728090#4 -223632525#2 -223632520#0"/>
    </vehicle>
    <vehicle id="veh147" depart="355.74" departLane="best" departPos="random" departSpeed="max">
        <route edges="223632525#0 223632525#1 -258728090#4 -258728090#3 -258728090#2 223632517 -E3"/>
    </vehicle>
    <vehicle id="veh148" depart="358.16" departLane="best" departPos="random" departSpeed="max">
        <route edges="-223632520#2 E1 -258728090#4 -258728090#3 -258728090#2 -258728090#0 671642282"/>
    </vehicle>
    <vehicle id="veh149" depart="360.58" departLane="best" departPos="random" departSpeed="max">
        <route edges="223632517 -E3 -223632520#2 649036317#3"/>
    </vehicle>
    <vehicle id="veh150" depart="363.00" departLane="best" departPos="random" departSpeed="max">
        <route edges="-649064895 649064895 E2 E3 649040853#1 649040853#2"/>
    </vehicle>
    <vehicle id="veh151" depart="365.42" departLane="best" departPos="random" departSpeed="max">
        <route edges="E1 -223632525#2 -223632525#0"/>
    </vehicle>
    <vehicle id="veh152" depart="367.84" departLane="best" departPos="random" departSpeed="max">
        <route edges="-649064895 E4 258728090#4 -E1 223632520#2 -E2"/>
    </vehicle>
    <vehicle id="veh155" depart="375.10" departLane="best" departPos="random" departSpeed="max">
        <route edges="-E4 649064895 -649064895"/>
    </vehicle>
    <vehicle id="veh156" depart="377.52" departLane="best" departPos="random" departSpeed="max">
        <route edges="-649036317#3 223632520#2 E3 649040853#1 649040853#2"/>
    </vehicle>
    <vehicle id="veh157" depart="379.94" departLane="best" departPos="random" departSpeed="max">
        <route edges="649040853#1 -223632522"/>
    </vehicle>
    <vehicle id="veh158" depart="382.36" departLane="best" departPos="random" departSpeed="max">
        <route edges="223632520#1 223632520#2 -E2"/>
    </vehicle>
    <vehicle id="veh159" depart="384.78" departLane="best" departPos="random" departSpeed="max">
        <route edges="649064896#1 258728090#3 258728090#4 -223632525#2"/>
    </vehicle>
    <vehicle id="veh161" depart="389.62" departLane="best" departPos="random" departSpeed="max">
        <route edges="223632525#1 -258728090#4 -258728090#3 -258728090#2 223632517"/>
    </vehicle>
    <vehicle id="veh162" depart="392.04" departLane="best" departPos="random" departSpeed="max">
        <route edges="E4 -258728090#3 -649064896#1"/>
    </vehicle>
    <vehicle id="veh163" depart="394.46" departLane="best" departPos="random" departSpeed="max">
        <route edges="-E1 223632520#2 E3 649040853#1 -223632522"/>
    </vehicle>
    <vehicle id="veh164" depart="396.88" departLane="best" departPos="random" departSpeed="max">
        <route edges="258728090#4 -E1 223632520#2 E3 -223632517 258728090#1"/>
    </vehicle>
    <vehicle id="veh166" depart="401.72" departLane="best" departPos="random" departSpeed="max">
        <route edges="E4 258728090#4 -223632525#2 -223632525#0"/>
    </vehicle>
    <vehicle id="veh167" depart="404.14" departLane="best" departPos="random" departSpeed="max">
        <route edges="-671642282 258728090#0 258728090#1 -649064896#1 649064896#1 -258728090#2 -258728090#0"/>
    </vehicle>
    <vehicle id="veh168" depart="406.56" departLane="best" departPos="random" departSpeed="max">
        <route edges="E4 -258728090#3 -258728090#2 -258728090#0 671642282 223632526"/>
    </vehicle>
    <vehicle id="veh169" depart="408.98" departLane="best" departPos="random" departSpeed="max">
        <route edges="-649036317#3 223632520#2 E3 649040853#1 -223632522"/>
    </vehicle>
    <vehicle id="veh170" depart="411.40" departLane="best" departPos="random" departSpeed="max">
        <route edges="223632525#0 -223632520#0"/>
    </vehicle>
    <vehicle id="veh171" depart="413.82" departLane="best" departPos="random" departSpeed="max">
        <route edges="-258728090#0"/>
    </vehicle>
    <vehicle id="veh173" depart="418.66" departLane="best" departPos="random" departSpeed="max">
        <route edges="-223632520#2 E1 -258728090#4 -E4 649064895 -649064895"/>
    </vehicle>
    <vehicle id="veh174" depart="421.08" departLane="best" departPos="random" departSpeed="max">
        <route edges="-649036317#3 E1 -223632525#2 223632520#1 649036317#3"/>
    </vehicle>
    <vehicle id="veh175" depart="423.50" departLane="best" departPos="random" departSpeed="max">
        <route edges="E3 649040853#1 649040853#2"/>
    </vehicle>
    <vehicle id="veh176" depart="425.92" departLane="best" departPos="random" departSpeed="max">
        <route edges="-649040853#1 -E3 -E2 -649064895 649064895 E2 E3 649040853#1"/>
    </vehicle>
    <vehicle id="veh177" depart="428.34" departLane="best" departPos="random" departSpeed="max">
        <route edges="649064896#1 -258728090#2 -258728090#0 671642282 223632526"/>
    </vehicle>
    <vehicle id="veh178" depart="430.76" departLane="best" departPos="random" departSpeed="max">