<?xml version="1.0" encoding="UTF-8"?>

<!-- generated on 2025-05-10 20:59:19.600965 by randomTrips.py v1_22_0+0002-63e50f52594
<configuration>
    <net-file value="E:/licenta/oras-mic/2025-05-08-13-35-40\osm.net.xml"/>
    <output-trip-file value="E:/licenta/oras-mic/2025-05-08-13-35-40\trips.trips.xml"/>
    <route-file value="E:/licenta/oras-mic/2025-05-08-13-35-40\generated_routes\routes_worker2_725ded0b.rou.xml"/>
    <prefix value="veh"/>
    <trip-attributes value="departLane=&quot;best&quot; departSpeed=&quot;max&quot; departPos=&quot;random&quot;"/>
    <fringe-factor value="3.1"/>
    <seed value="76427"/>
    <end value="600.0"/>
    <period value="2.12"/>
</configuration>
-->

<!-- generated on 2025-05-10 20:59:19 by Eclipse SUMO duarouter Version 1.22.0
<duarouterConfiguration xmlns:xsi="http://www.w3.org/2001/XMLSchema-instance" xsi:noNamespaceSchemaLocation="http://sumo.dlr.de/xsd/duarouterConfiguration.xsd">

    <input>
        <net-file value="E:/licenta/oras-mic/2025-05-08-13-35-40\osm.net.xml"/>
        <route-files value="E:/licenta/oras-mic/2025-05-08-13-35-40\trips.trips.xml"/>
    </input>

    <output>
        <output-file value="E:/licenta/oras-mic/2025-05-08-13-35-40\generated_routes\routes_worker2_725ded0b.rou.xml"/>
        <alternatives-output value="NUL"/>
    </output>

    <time>
        <begin value="0"/>
        <end value="600.0"/>
    </time>

    <report>
        <no-warnings value="true"/>
        <ignore-errors value="true"/>
        <no-step-log value="true"/>
    </report>

</duarouterConfiguration>
-->

<routes xmlns:xsi="http://www.w3.org/2001/XMLSchema-instance" xsi:noNamespaceSchemaLocation="http://sumo.dlr.de/xsd/routes_file.xsd">
    <vehicle id="veh0" depart="0.00" departLane="best" departPos="random" departSpeed="max">
        <route edges="-223632517 258728090#1 258728090#3 258728090#4 -E1 -223632520#1"/>
    </vehicle>
    <vehicle id="veh1" depart="2.45" departLane="best" departPos="random" departSpeed="max">
        <route edges="223632522 -649040853#1 -223632517 -258728090#0 671642282 223632526"/>
    </vehicle>
    <vehicle id="veh2" depart="4.90" departLane="best" departPos="random" departSpeed="max">
        <route edges="-223632526 -671642282 258728090#0 223632517 -E3"/>
    </vehicle>
    <vehicle id="veh4" depart="9.80" departLane="best" departPos="random" departSpeed="max">
        <route edges="E4 -258728090#3 -649064896#1 649064896#1"/>
    </vehicle>
    <vehicle id="veh5" depart="12.25" departLane="best" departPos="random" departSpeed="max">
        <route edges="-649040853#1 -E3 -223632520#2 -223632520#1 223632525#1"/>
    </vehicle>
    <vehicle id="veh6" depart="14.70" departLane="best" departPos="random" departSpeed="max">
        <route edges="-223632526 -671642282 258728090#0 258728090#1 -649064896#1 649064895"/>
    </vehicle>
    <vehicle id="veh7" depart="17.15" departLane="best" departPos="random" departSpeed="max">
        <route edges="223632520#2 -E2 -649064895 E4 258728090#4 -E1 -223632520#1"/>
    </vehicle>
    <vehicle id="veh8" depart="19.60" departLane="best" departPos="random" departSpeed="max">
        <route edges="E4 258728090#4 -223632525#2"/>
    </vehicle>
    <vehicle id="veh10" depart="24.50" departLane="best" departPos="random" departSpeed="max">
        <route edges="-223632517 258728090#1 -649064896#1 649064895 E2 E3 649040853#1 649040853#2"/>
    </vehicle>
    <vehicle id="veh11" depart="26.95" departLane="best" departPos="random" departSpeed="max">
        <route edges="-E1 223632520#2 E3 649040853#1 649040853#2"/>
    </vehicle>
    <vehicle id="veh12" depart="29.40" departLane="best" departPos="random" departSpeed="max">
        <route edges="223632517 -E3 -E2 -649064895 E4 258728090#4 -E1"/>
    </vehicle>
    <vehicle id="veh13" depart="31.85" departLane="best" departPos="random" departSpeed="max">
        <route edges="258728090#4 -223632525#2"/>
    </vehicle>
    <vehicle id="veh14" depart="34.30" departLane="best" departPos="random" departSpeed="max">
        <route edges="-649040853#1 -E3 -E2 -649064895 649064895 E2"/>
    </vehicle>
    <vehicle id="veh15" depart="36.75" departLane="best" departPos="random" departSpeed="max">
        <route edges="-258728090#3 -258728090#2 -258728090#0"/>
    </vehicle>
    <vehicle id="veh16" depart="39.20" departLane="best" departPos="random" departSpeed="max">
        <route edges="E1 -258728090#4 -E4 649064895 E2 E3 649040853#1"/>
    </vehicle>
    <vehicle id="veh17" depart="41.65" departLane="best" departPos="random" departSpeed="max">
        <route edges="-223632525#2 223632520#1 223632520#2 -E2 -649064895 649064896#1 258728090#3"/>
    </vehicle>
    <vehicle id="veh18" depart="44.10" departLane="best" departPos="random" departSpeed="max">
        <route edges="649064896#1 -258728090#2 -258728090#0 671642282"/>
    </vehicle>
    <vehicle id="veh19" depart="46.55" departLane="best" departPos="random" departSpeed="max">
        <route edges="E1 -258728090#4 258728090#4"/>
    </vehicle>
    <vehicle id="veh20" depart="49.00" departLane="best" departPos="random" departSpeed="max">
        <route edges="-223632517 258728090#1 -649064896#1 649064895"/>
    </vehicle>
    <vehicle id="veh21" depart="51.45" departLane="best" departPos="random" departSpeed="max">
        <route edges="E3 -223632517 258728090#1 -649064896#1"/>
    </vehicle>
    <vehicle id="veh22" depart="53.90" departLane="best" departPos="random" departSpeed="max">
        <route edges="223632517 -E3"/>
    </vehicle>
    <vehicle id="veh25" depart="61.25" departLane="best" departPos="random" departSpeed="max">
        <route edges="-671642282 258728090#0 258728090#1 -649064896#1 649064896#1 -258728090#2 -258728090#0 671642282 223632526"/>
    </vehicle>
    <vehicle id="veh26" depart="63.70" departLane="best" departPos="random" departSpeed="max">
        <route edges="-223632520#1 223632525#1 -258728090#4 -E4 649064895"/>
    </vehicle>
    <vehicle id="veh27" depart="66.15" departLane="best" departPos="random" departSpeed="max">
        <route edges="-223632520#1 -223632525#0"/>
    </vehicle>
    <vehicle id="veh28" depart="68.60" departLane="best" departPos="random" departSpeed="max">
        <route edges="-671642282 258728090#0 223632517 649040853#1 649040853#2"/>
    </vehicle>
    <vehicle id="veh29" depart="71.05" departLane="best" departPos="random" departSpeed="max">
        <route edges="258728090#0 223632517 -E3 -223632520#2 -223632520#1 223632525#1"/>
    </vehicle>
    <vehicle id="veh30" depart="73.50" departLane="best" departPos="random" departSpeed="max">
        <route edges="223632520#0 223632520#1 E1 -223632525#2 -223632520#0"/>
    </vehicle>
    <vehicle id="veh32" depart="78.40" departLane="best" departPos="random" departSpeed="max">
        <route edges="-223632517 258728090#1 -649064896#1 649064895 E2 E3 649040853#1 -223632522"/>
    </vehicle>
    <vehicle id="veh33" depart="80.85" departLane="best" departPos="random" departSpeed="max">
        <route edges="258728090#0 258728090#1 -649064896#1 649064896#1"/>
    </vehicle>
    <vehicle id="veh35" depart="85.75" departLane="best" departPos="random" departSpeed="max">
        <route edges="-223632520#1 223632525#1 -258728090#4 258728090#4"/>
    </vehicle>
    <vehicle id="veh36" depart="88.20" departLane="best" departPos="random" departSpeed="max">
        <route edges="-144943776 -649040853#1 -E3 -223632520#2 -223632520#1 223632525#1"/>
    </vehicle>
    <vehicle id="veh38" depart="93.10" departLane="best" departPos="random" departSpeed="max">
        <route edges="-223632526 -671642282 258728090#0 258728090#1 -649064896#1 649064895 E2 E3 -223632517"/>
    </vehicle>
    <vehicle id="veh39" depart="95.55" departLane="best" departPos="random" departSpeed="max">
        <route edges="258728090#3"/>
    </vehicle>
    <vehicle id="veh40" depart="98.00" departLane="best" departPos="random" departSpeed="max">
        <route edges="-E1 649036317#3"/>
    </vehicle>
    <vehicle id="veh41" depart="100.45" departLane="best" departPos="random" departSpeed="max">
        <route edges="258728090#0 223632517 -E3 -223632520#2 -223632520#1 223632525#1"/>
    </vehicle>
    <vehicle id="veh42" depart="102.90" departLane="best" departPos="random" departSpeed="max">
        <route edges="-223632525#2 223632520#1 E1 -258728090#4 -E4"/>
    </vehicle>
    <vehicle id="veh43" depart="105.35" departLane="best" departPos="random" departSpeed="max">
        <route edges="223632522 -649040853#1 -E3 -223632520#2 649036317#3"/>
    </vehicle>
    <vehicle id="veh44" depart="107.80" departLane="best" departPos="random" departSpeed="max">
        <route edges="223632520#0 223632520#1 223632520#2 -E2"/>
    </vehicle>
    <vehicle id="veh45" depart="110.25" departLane="best" departPos="random" departSpeed="max">
        <route edges="223632520#2 -E2 -649064895 E4 -258728090#3 -649064896#1"/>
    </vehicle>
    <vehicle id="veh46" depart="112.70" departLane="best" departPos="random" departSpeed="max">
        <route edges="E3 -223632517 258728090#1 258728090#3 258728090#4 -E1 -223632520#1 223632525#1"/>
    </vehicle>
    <vehicle id="veh47" depart="115.15" departLane="best" departPos="random" departSpeed="max">
        <route edges="258728090#0 223632517 -E3 -223632520#2"/>
    </vehicle>
    <vehicle id="veh48" depart="117.60" departLane="best" departPos="random" departSpeed="max">
        <route edges="-E1 223632520#2 -E2 -649064895 649064896#1 -258728090#2 223632517 -E3"/>
    </vehicle>
    <vehicle id="veh50" depart="122.50" departLane="best" departPos="random" departSpeed="max">
        <route edges="258728090#1 -649064896#1 649064895 E2 E3"/>
    </vehicle>
    <vehicle id="veh51" depart="124.95" departLane="best" departPos="random" departSpeed="max">
        <route edges="-E2 -649064895 649064895 E2 -223632520#2"/>
    </vehicle>
    <vehicle id="veh52" depart="127.40" departLane="best" departPos="random" departSpeed="max">
        <route edges="-144943776 -649040853#1 -E3 -223632520#2 -223632520#1 -223632520#0"/>
    </vehicle>
    <vehicle id="veh53" depart="129.85" departLane="best" departPos="random" departSpeed="max">
        <route edges="E2 E3 -223632517 258728090#1"/>
    </vehicle>
    <vehicle id="veh54" depart="132.30" departLane="best" departPos="random" departSpeed="max">
        <route edges="-258728090#2 223632517 -E3 -223632520#2 649036317#3"/>
    </vehicle>
    <vehicle id="veh55" depart="134.75" departLane="best" departPos="random" departSpeed="max">
        <route edges="649064896#1 258728090#3 258728090#4 -223632525#2 223632520#1 E1 -258728090#4"/>
    </vehicle>
    <vehicle id="veh56" depart="137.20" departLane="best" departPos="random" departSpeed="max">
        <route edges="-223632520#1 -223632525#0"/>
    </vehicle>
    <vehicle id="veh57" depart="139.65" departLane="best" departPos="random" departSpeed="max">
        <route edges="-223632526 -671642282 258728090#0 223632517 -E3 -223632520#2 E1 -258728090#4"/>
    </vehicle>
    <vehicle id="veh58" depart="142.10" departLane="best" departPos="random" departSpeed="max">
        <route edges="223632522 -649040853#1 -E3 -223632520#2"/>
    </vehicle>
    <vehicle id="veh59" depart="144.55" departLane="best" departPos="random" departSpeed="max">
        <route edges="-649040853#1 -E3 -E2 -649064895 E4 258728090#4 -E1"/>
    </vehicle>
    <vehicle id="veh60" depart="147.00" departLane="best" departPos="random" departSpeed="max">
        <route edges="E3 -223632517 258728090#1 258728090#3 258728090#4 -E1 649036317#3"/>
    </vehicle>
    <vehicle id="veh61" depart="149.45" departLane="best" departPos="random" departSpeed="max">
        <route edges="-258728090#2 223632517 -E3 -E2"/>
    </vehicle>
    <vehicle id="veh62" depart="151.90" departLane="best" departPos="random" departSpeed="max">
        <route edges="-223632525#2 223632520#1 223632520#2 -E2 -649064895 649064895"/>
    </vehicle>
    <vehicle id="veh63" depart="154.35" departLane="best" departPos="random" departSpeed="max">
        <route edges="223632520#0 223632520#1 E1 -223632525#2"/>
    </vehicle>
    <vehicle id="veh64" depart="156.80" departLane="best" departPos="random" departSpeed="max">
        <route edges="-E2 -649064895 E4 258728090#4 -E1"/>
    </vehicle>
    <vehicle id="veh65" depart="159.25" departLane="best" departPos="random" departSpeed="max">
        <route edges="-649040853#1 -E3 -223632520#2 E1 -258728090#4 -E4"/>
    </vehicle>
    <vehicle id="veh66" depart="161.70" departLane="best" departPos="random" departSpeed="max">
        <route edges="-258728090#2 223632517 -E3 -E2 -649064895 649064896#1 258728090#3"/>
    </vehicle>
    <vehicle id="veh67" depart="164.15" departLane="best" departPos="random" departSpeed="max">
        <route edges="258728090#1 258728090#3"/>
    </vehicle>
    <vehicle id="veh68" depart="166.60" departLane="best" departPos="random" departSpeed="max">
        <route edges="-649064895 E4"/>
    </vehicle>
    <vehicle id="veh69" depart="169.05" departLane="best" departPos="random" departSpeed="max">
        <route edges="649064896#1 258728090#3 -E4 649064895 E2 E3 649040853#1 649040853#2"/>
    </vehicle>
    <vehicle id="veh71" depart="173.95" departLane="best" departPos="random" departSpeed="max">
        <route edges="-223632520#2 E1 -258728090#4"/>
    </vehicle>
    <vehicle id="veh73" depart="178.85" departLane="best" departPos="random" departSpeed="max">
        <route edges="223632520#2 -E2 -649064895 E4 258728090#4"/>
    </vehicle>
    <vehicle id="veh74" depart="181.30" departLane="best" departPos="random" departSpeed="max">
        <route edges="-649036317#3 -223632520#1 -223632525#0"/>
    </vehicle>
    <vehicle id="veh75" depart="183.75" departLane="best" departPos="random" departSpeed="max">
        <route edges="-223632525#2 223632520#1 223632520#2 E3 -223632517 -258728090#0 671642282 223632526"/>
    </vehicle>
    <vehicle id="veh76" depart="186.20" departLane="best" departPos="random" departSpeed="max">
        <route edges="-649040853#1 -E3 -223632520#2 E1"/>
    </vehicle>
    <vehicle id="veh77" depart="188.65" departLane="best" departPos="random" departSpeed="max">
        <route edges="-223632525#2 223632520#1 649036317#3"/>
    </vehicle>
    <vehicle id="veh78" depart="191.10" departLane="best" departPos="random" departSpeed="max">
        <route edges="-258728090#3 -649064896#1 649064895 E2 -223632520#2 -223632520#1 223632525#1"/>
    </vehicle>
    <vehicle id="veh80" depart="196.00" departLane="best" departPos="random" departSpeed="max">
        <route edges="223632520#0 223632520#1 223632520#2 E3 649040853#1 -223632522"/>
    </vehicle>
    <vehicle id="veh81" depart="198.45" departLane="best" departPos="random" departSpeed="max">
        <route edges="-258728090#2 223632517 -E3 -223632520#2 E1 -258728090#4"/>
    </vehicle>
    <vehicle id="veh82" depart="200.90" departLane="best" departPos="random" departSpeed="max">
        <route edges="223632520#0 223632520#1"/>
    </vehicle>
    <vehicle id="veh83" depart="203.35" departLane="best" departPos="random" departSpeed="max">
        <route edges="223632522 -649040853#1 -223632517 -258728090#0 671642282 223632526"/>
    </vehicle>
    <vehicle id="veh84" depart="205.80" departLane="best" departPos="random" departSpeed="max">
        <route edges="223632520#0 223632525#1 -258728090#4 -E4 649064895 E2"/>
    </vehicle>
    <vehicle id="veh85" depart="208.25" departLane="best" departPos="random" departSpeed="max">
        <route edges="223632522 -649040853#1 -E3 -E2 -649064895 E4 258728090#4 -223632525#2 223632520#1"/>
    </vehicle>
    <vehicle id="veh86" depart="210.70" departLane="best" departPos="random" departSpeed="max">
        <route edges="-671642282 258728090#0 223632517 649040853#1 -223632522"/>
    </vehicle>
    <vehicle id="veh87" depart="213.15" departLane="best" departPos="random" departSpeed="max">
        <route edges="258728090#0 258728090#1 -649064896#1 649064896#1"/>
    </vehicle>
    <vehicle id="veh89" depart="218.05" departLane="best" departPos="random" departSpeed="max">
        <route edges="E1 -258728090#4 -258728090#3 -258728090#2 -258728090#0"/>
    </vehicle>
    <vehicle id="veh90" depart="220.50" departLane="best" departPos="random" departSpeed="max">
        <route edges="-223632520#1 223632525#1 -258728090#4 -258728090#3 -649064896#1"/>
    </vehicle>
    <vehicle id="veh91" depart="222.95" departLane="best" departPos="random" departSpeed="max">
        <route edges="-E4 649064896#1 258728090#3 258728090#4 -E1"/>
    </vehicle>
    <vehicle id="veh92" depart="225.40" departLane="best" departPos="random" departSpeed="max">
        <route edges="-223632520#2 -223632520#1 -223632520#0"/>
    </vehicle>
    <vehicle id="veh93" depart="227.85" departLane="best" departPos="random" departSpeed="max">
        <route edges="-258728090#2 223632517 -E3 -223632520#2"/>
    </vehicle>
    <vehicle id="veh94" depart="230.30" departLane="best" departPos="random" departSpeed="max">
        <route edges="-223632525#2 223632520#1 223632520#2 E3 649040853#1 -223632522"/>
    </vehicle>
    <vehicle id="veh95" depart="232.75" departLane="best" departPos="random" departSpeed="max">
        <route edges="E4 -258728090#3 -649064896#1 649064896#1"/>
    </vehicle>
    <vehicle id="veh96" depart="235.20" departLane="best" departPos="random" departSpeed="max">
        <route edges="-258728090#0 671642282"/>
    </vehicle>
    <vehicle id="veh97" depart="237.65" departLane="best" departPos="random" departSpeed="max">
        <route edges="-223632520#1 223632525#1 -258728090#4 -E4 649064895 E2 E3 649040853#1 -223632522"/>
    </vehicle>
    <vehicle id="veh98" depart="240.10" departLane="best" departPos="random" departSpeed="max">
        <route edges="-649040853#1 -E3 -223632520#2 649036317#3"/>
    </vehicle>
    <vehicle id="veh99" depart="242.55" departLane="best" departPos="random" departSpeed="max">
        <route edges="-223632525#2 223632520#1 223632520#2 E3 649040853#1 649040853#2"/>
    </vehicle>
    <vehicle id="veh100" depart="245.00" departLane="best" departPos="random" departSpeed="max">
        <route edges="-258728090#2 223632517 -E3 -E2 -649064895 E4 -258728090#3 -649064896#1"/>
    </vehicle>
    <vehicle id="veh101" depart="247.45" departLane="best" departPos="random" departSpeed="max">
        <route edges="223632520#0 223632520#1 223632520#2 E3 -223632517 -258728090#0 671642282"/>
    </vehicle>
    <vehicle id="veh102" depart="249.90" departLane="best" departPos="random" departSpeed="max">
        <route edges="223632517 -E3 -E2 -649064895 649064896#1"/>
    </vehicle>
    <vehicle id="veh103" depart="252.35" departLane="best" departPos="random" departSpeed="max">
        <route edges="-223632520#2 E1 -258728090#4 -258728090#3 -258728090#2 -258728090#0 671642282"/>
    </vehicle>
    <vehicle id="veh104" depart="254.80" departLane="best" departPos="random" departSpeed="max">
        <route edges="-649040853#1 -E3 -E2 -649064895 E4"/>
    </vehicle>
    <vehicle id="veh105" depart="257.25" departLane="best" departPos="random" departSpeed="max">
        <route edges="223632525#1 -258728090#4 -E4 649064895 E2"/>
    </vehicle>
    <vehicle id="veh106" depart="259.70" departLane="best" departPos="random" departSpeed="max">
        <route edges="649064896#1 258728090#3 258728090#4 -E1 649036317#3"/>
    </vehicle>
    <vehicle id="veh107" depart="262.15" departLane="best" departPos="random" departSpeed="max">
        <route edges="E3 -223632517 258728090#1 258728090#3 258728090#4 -E1 -223632520#1"/>
    </vehicle>
    <vehicle id="veh109" depart="267.05" departLane="best" departPos="random" departSpeed="max">
        <route edges="-258728090#3 -258728090#2 223632517 -E3"/>
    </vehicle>
    <vehicle id="veh110" depart="269.50" departLane="best" departPos="random" departSpeed="max">
        <route edges="223632522 -649040853#1 -E3"/>
    </vehicle>
    <vehicle id="veh111" depart="271.95" departLane="best" departPos="random" departSpeed="max">
        <route edges="-144943776 -649040853#1 -E3 -E2"/>
    </vehicle>
    <vehicle id="veh112" depart="274.40" departLane="best" departPos="random" departSpeed="max">
        <route edges="E2 -223632520#2 E1 -258728090#4 -E4"/>
    </vehicle>
    <vehicle id="veh113" depart="276.85" departLane="best" departPos="random" departSpeed="max">
        <route edges="-223632526 -671642282 258728090#0 223632517 -E3 -223632520#2 649036317#3"/>
    </vehicle>
    <vehicle id="veh115" depart="281.75" departLane="best" departPos="random" departSpeed="max">
        <route edges="223632520#0 223632525#1 -258728090#4 -E4 649064896#1"/>
    </vehicle>
    <vehicle id="veh116" depart="284.20" departLane="best" departPos="random" departSpeed="max">
        <route edges="-E1 223632520#2 -E2 -649064895 649064896#1"/>
    </vehicle>
    <vehicle id="veh117" depart="286.65" departLane="best" departPos="random" departSpeed="max">
        <route edges="-E4 649064896#1 -258728090#2 223632517 -E3"/>
    </vehicle>
    <vehicle id="veh118" depart="289.10" departLane="best" departPos="random" departSpeed="max">
        <route edges="-258728090#2 223632517 -E3 -E2 -649064895 E4 258728090#4 -E1 223632520#2"/>
    </vehicle>
    <vehicle id="veh120" depart="294.00" departLane="best" departPos="random" departSpeed="max">
        <route edges="-223632525#2 223632520#1 223632520#2 E3 -223632517 -258728090#0 671642282"/>
    </vehicle>
    <vehicle id="veh121" depart="296.45" departLane="best" departPos="random" departSpeed="max">
        <route edges="649064896#1 258728090#3 258728090#4 -E1 223632520#2"/>
    </vehicle>
    <vehicle id="veh122" depart="298.90" departLane="best" departPos="random" departSpeed="max">
        <route edges="223632517 -E3 -223632520#2 -223632520#1 223632525#1"/>
    </vehicle>
    <vehicle id="veh123" depart="301.35" departLane="best" departPos="random" departSpeed="max">
        <route edges="258728090#1 -649064896#1 649064896#1 -258728090#2 223632517"/>
    </vehicle>
    <vehicle id="veh124" depart="303.80" departLane="best" departPos="random" departSpeed="max">
        <route edges="-144943776 -649040853#1 -E3 -223632520#2 649036317#3"/>
    </vehicle>
    <vehicle id="veh125" depart="306.25" departLane="best" departPos="random" departSpeed="max">
        <route edges="-223632525#2"/>
    </vehicle>
    <vehicle id="veh126" depart="308.70" departLane="best" departPos="random" departSpeed="max">
        <route edges="-258728090#4 -258728090#3 -258728090#2 223632517 -E3"/>
    </vehicle>
    <vehicle id="veh127" depart="311.15" departLane="best" departPos="random" departSpeed="max">
        <route edges="-258728090#2 223632517 -E3 -E2"/>
    </vehicle>
    <vehicle id="veh128" depart="313.60" departLane="best" departPos="random" departSpeed="max">
        <route edges="-649064895 E4 258728090#4 -E1 223632520#2 -E2"/>
    </vehicle>
    <vehicle id="veh130" depart="318.50" departLane="best" departPos="random" departSpeed="max">
        <route edges="-258728090#3 -649064896#1 649064896#1 258728090#3 -E4"/>
    </vehicle>
    <vehicle id="veh131" depart="320.95" departLane="best" departPos="random" departSpeed="max">
        <route edges="E4 258728090#4 -E1 223632520#2 E3 649040853#1"/>
    </vehicle>
    <vehicle id="veh132" depart="323.40" departLane="best" departPos="random" departSpeed="max">
        <route edges="-223632517 258728090#1 258728090#3 258728090#4 -223632525#2"/>
    </vehicle>
    <vehicle id="veh134" depart="328.30" departLane="best" departPos="random" departSpeed="max">
        <route edges="258728090#0 258728090#1 -649064896#1 649064895 E2 E3"/>
    </vehicle>
    <vehicle id="veh135" depart="330.75" departLane="best" departPos="random" departSpeed="max">
        <route edges="-144943776 -649040853#1 -E3 -E2 -649064895 E4 -258728090#3 -649064896#1"/>
    </vehicle>
    <vehicle id="veh136" depart="333.20" departLane="best" departPos="random" departSpeed="max">
        <route edges="-649064895 649064895 E2 -223632520#2"/>
    </vehicle>
    <vehicle id="veh137" depart="335.65" departLane="best" departPos="random" departSpeed="max">
        <route edges="258728090#3 -258728090#3"/>
    </vehicle>
    <vehicle id="veh138" depart="338.10" departLane="best" departPos="random" departSpeed="max">
        <route edges="-649064896#1 649064896#1 -258728090#2 223632517 -E3"/>
    </vehicle>
    <vehicle id="veh139" depart="340.55" departLane="best" departPos="random" departSpeed="max">
        <route edges="-144943776 -649040853#1 -E3 -223632520#2 E1"/>
    </vehicle>
    <vehicle id="veh141" depart="345.45" departLane="best" departPos="random" departSpeed="max">
        <route edges="-223632525#2 223632520#1 223632520#2 E3 -223632517 -258728090#0 671642282 223632526"/>
    </vehicle>
    <vehicle id="veh142" depart="347.90" departLane="best" departPos="random" departSpeed="max">
        <route edges="223632522 -649040853#1 -E3 -E2 -649064895 E4 -258728090#3"/>
    </vehicle>
    <vehicle id="veh143" depart="350.35" departLane="best" departPos="random" departSpeed="max">
        <route edges="223632520#1 649036317#3"/>
    </vehicle>
    <vehicle id="veh144" depart="352.80" departLane="best" departPos="random" departSpeed="max">
        <route edges="-671642282 258728090#0 223632517 -E3 -223632520#2 -223632520#1 223632525#1"/>
    </vehicle>
    <vehicle id="veh146" depart="357.70" departLane="best" departPos="random" departSpeed="max">
        <route edges="-223632526 -671642282 258728090#0 258728090#1 -649064896#1 649064896#1 -258728090#2 -258728090#0 671642282 223632526"/>
    </vehicle>
    <vehicle id="veh147" depart="360.15" departLane="best" departPos="random" departSpeed="max">
        <route edges="-223632520#2 E1 -223632525#2 223632520#1"/>
    </vehicle>
    <vehicle id="veh148" depart="362.60" departLane="best" departPos="random" departSpeed="max">
        <route edges="-E3 -E2 -649064895 649064895 E2 E3 649040853#1 -223632522"/>
    </vehicle>
    <vehicle id="veh151" depart="369.95" departLane="best" departPos="random" departSpeed="max">
        <route edges="-223632525#2 223632520#1 649036317#3"/>
    </vehicle>
    <vehicle id="veh152" depart="372.40" departLane="best" departPos="random" departSpeed="max">
        <route edges="-671642282 258728090#0 258728090#1 -649064896#1 649064895 E2"/>
    </vehicle>
    <vehicle id="veh154" depart="377.30" departLane="best" departPos="random" departSpeed="max">
        <route edges="E2 -223632520#2 E1"/>
    </vehicle>
    <vehicle id="veh155" depart="379.75" departLane="best" departPos="random" departSpeed="max">
        <route edges="223632522 649040853#2"/>
    </vehicle>
    <vehicle id="veh156" depart="382.20" departLane="best" departPos="random" departSpeed="max">
        <route edges="258728090#0 258728090#1 -649064896#1 649064895 E2 E3"/>
    </vehicle>
    <vehicle id="veh157" depart="384.65" departLane="best" departPos="random" departSpeed="max">
        <route edges="223632517 -E3"/>
    </vehicle>
    <vehicle id="veh158" depart="387.10" departLane="best" departPos="random" departSpeed="max">
        <route edges="258728090#3 -E4 649064896#1 -258728090#2 -258728090#0 671642282"/>
    </vehicle>
    <vehicle id="veh159" depart="389.55" departLane="best" departPos="random" departSpeed="max">
        <route edges="-E2 -649064895 E4 258728090#4 -E1 -223632520#1 223632525#1"/>
    </vehicle>
    <vehicle id="veh160" depart="392.00" departLane="best" departPos="random" departSpeed="max">
        <route edges="258728090#4 -E1 223632520#2 -E2 -649064895"/>
    </vehicle>
    <vehicle id="veh161" depart="394.45" departLane="best" departPos="random" departSpeed="max">
        <route edges="-223632520#2 649036317#3"/>
    </vehicle>
    <vehicle id="veh162" depart="396.90" departLane="best" departPos="random" departSpeed="max">
        <route edges="258728090#3 258728090#4 -E1 223632520#2"/>
    </vehicle>
    <vehicle id="veh163" depart="399.35" departLane="best" departPos="random" departSpeed="max">
        <route edges="E4 -258728090#3 -258728090#2 -258728090#0"/>
    </vehicle>
</routes>
