<?xml version="1.0" encoding="UTF-8"?>

<!-- generated on 2025-05-11 05:34:01.700111 by randomTrips.py v1_22_0+0002-63e50f52594
<configuration>
    <net-file value="E:/licenta/oras-mic/2025-05-08-13-35-40\osm.net.xml"/>
    <output-trip-file value="E:/licenta/oras-mic/2025-05-08-13-35-40\trips.trips.xml"/>
    <route-file value="E:/licenta/oras-mic/2025-05-08-13-35-40\generated_routes\routes_worker3_0c9334ba.rou.xml"/>
    <prefix value="veh"/>
    <trip-attributes value="departLane=&quot;best&quot; departSpeed=&quot;max&quot; departPos=&quot;random&quot;"/>
    <fringe-factor value="2.8"/>
    <seed value="43809"/>
    <end value="600.0"/>
    <period value="2.49"/>
</configuration>
-->

<!-- generated on 2025-05-11 05:34:01 by Eclipse SUMO duarouter Version 1.22.0
<duarouterConfiguration xmlns:xsi="http://www.w3.org/2001/XMLSchema-instance" xsi:noNamespaceSchemaLocation="http://sumo.dlr.de/xsd/duarouterConfiguration.xsd">

    <input>
        <net-file value="E:/licenta/oras-mic/2025-05-08-13-35-40\osm.net.xml"/>
        <route-files value="E:/licenta/oras-mic/2025-05-08-13-35-40\trips.trips.xml"/>
    </input>

    <output>
        <output-file value="E:/licenta/oras-mic/2025-05-08-13-35-40\generated_routes\routes_worker3_0c9334ba.rou.xml"/>
        <alternatives-output value="NUL"/>
    </output>

    <time>
        <begin value="0"/>
        <end value="600.0"/>
    </time>

    <report>
        <no-warnings value="true"/>
        <ignore-errors value="true"/>
        <no-step-log value="true"/>
    </report>

</duarouterConfiguration>
-->

<routes xmlns:xsi="http://www.w3.org/2001/XMLSchema-instance" xsi:noNamespaceSchemaLocation="http://sumo.dlr.de/xsd/routes_file.xsd">
    <vehicle id="veh0" depart="0.00" departLane="best" departPos="random" departSpeed="max">
        <route edges="223632525#0 223632525#1 -258728090#4 -E4 649064896#1"/>
    </vehicle>
    <vehicle id="veh1" depart="1.77" departLane="best" departPos="random" departSpeed="max">
        <route edges="E2 -223632520#2 E1 -223632525#2"/>
    </vehicle>
    <vehicle id="veh2" depart="3.54" departLane="best" departPos="random" departSpeed="max">
        <route edges="649064896#1"/>
    </vehicle>
    <vehicle id="veh3" depart="5.31" departLane="best" departPos="random" departSpeed="max">
        <route edges="-223632517 258728090#1 258728090#3"/>
    </vehicle>
    <vehicle id="veh4" depart="7.08" departLane="best" departPos="random" departSpeed="max">
        <route edges="649064895 E2 -223632520#2 -223632520#1 -223632525#0"/>
    </vehicle>
    <vehicle id="veh5" depart="8.85" departLane="best" departPos="random" departSpeed="max">
        <route edges="-649040853#1 -223632517 -258728090#0 671642282 223632526"/>
    </vehicle>
    <vehicle id="veh6" depart="10.62" departLane="best" departPos="random" departSpeed="max">
        <route edges="-671642282"/>
    </vehicle>
    <vehicle id="veh7" depart="12.39" departLane="best" departPos="random" departSpeed="max">
        <route edges="-144943776 -649040853#1 -E3 -223632520#2 -223632520#1 223632525#1"/>
    </vehicle>
    <vehicle id="veh8" depart="14.16" departLane="best" departPos="random" departSpeed="max">
        <route edges="-649064896#1 E4 -258728090#3"/>
    </vehicle>
    <vehicle id="veh9" depart="15.93" departLane="best" departPos="random" departSpeed="max">
        <route edges="-E3 -E2 -649064895 E4 -258728090#3"/>
    </vehicle>
    <vehicle id="veh10" depart="17.70" departLane="best" departPos="random" departSpeed="max">
        <route edges="-E3 -223632520#2 -223632520#1 -223632525#0"/>
    </vehicle>
    <vehicle id="veh11" depart="19.47" departLane="best" departPos="random" departSpeed="max">
        <route edges="-671642282 258728090#0 223632517 -E3 -223632520#2 E1"/>
    </vehicle>
    <vehicle id="veh13" depart="23.01" departLane="best" departPos="random" departSpeed="max">
        <route edges="223632525#0 223632525#1 -258728090#4 -258728090#3 -649064896#1"/>
    </vehicle>
    <vehicle id="veh15" depart="26.55" departLane="best" departPos="random" departSpeed="max">
        <route edges="223632522 -649040853#1 -E3 -223632520#2 E1 -258728090#4"/>
    </vehicle>
    <vehicle id="veh16" depart="28.32" departLane="best" departPos="random" departSpeed="max">
        <route edges="-649064896#1 649064895 E2 -223632520#2"/>
    </vehicle>
    <vehicle id="veh17" depart="30.09" departLane="best" departPos="random" departSpeed="max">
        <route edges="-258728090#4 258728090#4 -E1 223632520#2"/>
    </vehicle>
    <vehicle id="veh18" depart="31.86" departLane="best" departPos="random" departSpeed="max">
        <route edges="-649040853#1 -E3 -E2 -649064895 649064895 E2 E3 649040853#1 -223632522"/>
    </vehicle>
    <vehicle id="veh19" depart="33.63" departLane="best" departPos="random" departSpeed="max">
        <route edges="223632525#0 223632520#1 223632520#2 -E2 -649064895"/>
    </vehicle>
    <vehicle id="veh21" depart="37.17" departLane="best" departPos="random" departSpeed="max">
        <route edges="-223632526 -671642282 258728090#0 258728090#1 -649064896#1 E4 -258728090#3"/>
    </vehicle>
    <vehicle id="veh22" depart="38.94" departLane="best" departPos="random" departSpeed="max">
        <route edges="-E4 649064896#1 -258728090#2"/>
    </vehicle>
    <vehicle id="veh23" depart="40.71" departLane="best" departPos="random" departSpeed="max">
        <route edges="-223632520#2 E1 -258728090#4 -258728090#3 -258728090#2 -258728090#0 671642282"/>
    </vehicle>
    <vehicle id="veh24" depart="42.48" departLane="best" departPos="random" departSpeed="max">
        <route edges="-223632526 -671642282 258728090#0 258728090#1 258728090#3"/>
    </vehicle>
    <vehicle id="veh25" depart="44.25" departLane="best" departPos="random" departSpeed="max">
        <route edges="-223632526 -671642282 258728090#0 258728090#1 -649064896#1 649064896#1 -258728090#2 -258728090#0 671642282 223632526"/>
    </vehicle>
    <vehicle id="veh26" depart="46.02" departLane="best" departPos="random" departSpeed="max">
        <route edges="258728090#1 -649064896#1 E4 -258728090#3"/>
    </vehicle>
    <vehicle id="veh28" depart="49.56" departLane="best" departPos="random" departSpeed="max">
        <route edges="-649036317#3 E1 -258728090#4 -258728090#3 -258728090#2"/>
    </vehicle>
    <vehicle id="veh29" depart="51.33" departLane="best" departPos="random" departSpeed="max">
        <route edges="258728090#1 258728090#3 258728090#4 -223632525#2"/>
    </vehicle>
    <vehicle id="veh30" depart="53.10" departLane="best" departPos="random" departSpeed="max">
        <route edges="223632520#1 223632520#2 -E2 -649064895"/>
    </vehicle>
    <vehicle id="veh31" depart="54.87" departLane="best" departPos="random" departSpeed="max">
        <route edges="-223632520#2 E1 -258728090#4 -258728090#3 -258728090#2 223632517"/>
    </vehicle>
    <vehicle id="veh32" depart="56.64" departLane="best" departPos="random" departSpeed="max">
        <route edges="-649036317#3 E1 -258728090#4 -258728090#3 -258728090#2 223632517"/>
    </vehicle>
    <vehicle id="veh33" depart="58.41" departLane="best" departPos="random" departSpeed="max">
        <route edges="-E4 649064895 E2 -223632520#2 649036317#3"/>
    </vehicle>
    <vehicle id="veh34" depart="60.18" departLane="best" departPos="random" departSpeed="max">
        <route edges="-223632525#2 223632520#1 223632520#2 -E2"/>
    </vehicle>
    <vehicle id="veh35" depart="61.95" departLane="best" departPos="random" departSpeed="max">
        <route edges="-258728090#2 223632517 649040853#1 -223632522"/>
    </vehicle>
    <vehicle id="veh36" depart="63.72" departLane="best" departPos="random" departSpeed="max">
        <route edges="649064895 E2 E3 649040853#1 -223632522"/>
    </vehicle>
    <vehicle id="veh37" depart="65.49" departLane="best" departPos="random" departSpeed="max">
        <route edges="E1 -223632525#2 -223632525#0"/>
    </vehicle>
    <vehicle id="veh38" depart="67.26" departLane="best" departPos="random" departSpeed="max">
        <route edges="E3 -223632517 258728090#1 258728090#3 258728090#4 -E1 649036317#3"/>
    </vehicle>
    <vehicle id="veh39" depart="69.03" departLane="best" departPos="random" departSpeed="max">
        <route edges="223632522 -649040853#1 -223632517"/>
    </vehicle>
    <vehicle id="veh40" depart="70.80" departLane="best" departPos="random" departSpeed="max">
        <route edges="-E4 649064895 E2"/>
    </vehicle>
    <vehicle id="veh41" depart="72.57" departLane="best" departPos="random" departSpeed="max">
        <route edges="E2 -223632520#2 E1 -258728090#4 -E4 649064895"/>
    </vehicle>
    <vehicle id="veh42" depart="74.34" departLane="best" departPos="random" departSpeed="max">
        <route edges="E4 -258728090#3 -649064896#1"/>
    </vehicle>
    <vehicle id="veh43" depart="76.11" departLane="best" departPos="random" departSpeed="max">
        <route edges="258728090#4 -223632525#2 -223632525#0"/>
    </vehicle>
    <vehicle id="veh44" depart="77.88" departLane="best" departPos="random" departSpeed="max">
        <route edges="649064896#1 258728090#3 -258728090#3 -649064896#1"/>
    </vehicle>
    <vehicle id="veh45" depart="79.65" departLane="best" departPos="random" departSpeed="max">
        <route edges="-223632520#1 -223632525#0"/>
    </vehicle>
    <vehicle id="veh46" depart="81.42" departLane="best" departPos="random" departSpeed="max">
        <route edges="649064896#1 258728090#3 -E4 649064895 E2 E3 649040853#1"/>
    </vehicle>
    <vehicle id="veh47" depart="83.19" departLane="best" departPos="random" departSpeed="max">
        <route edges="-144943776 -649040853#1 -E3 -223632520#2 649036317#3"/>
    </vehicle>
    <vehicle id="veh48" depart="84.96" departLane="best" departPos="random" departSpeed="max">
        <route edges="223632520#1 E1 -223632525#2 -223632520#0"/>
    </vehicle>
    <vehicle id="veh50" depart="88.50" departLane="best" departPos="random" departSpeed="max">
        <route edges="E4 -258728090#3 -258728090#2 -258728090#0 671642282"/>
    </vehicle>
    <vehicle id="veh51" depart="90.27" departLane="best" departPos="random" departSpeed="max">
        <route edges="223632517 -E3 -E2 -649064895 E4 -258728090#3"/>
    </vehicle>
    <vehicle id="veh52" depart="92.04" departLane="best" departPos="random" departSpeed="max">
        <route edges="-E3 -E2 -649064895 649064895 E2 E3 649040853#1"/>
    </vehicle>
    <vehicle id="veh53" depart="93.81" departLane="best" departPos="random" departSpeed="max">
        <route edges="223632522 -649040853#1 -E3 -223632520#2"/>
    </vehicle>
    <vehicle id="veh54" depart="95.58" departLane="best" departPos="random" departSpeed="max">
        <route edges="-E1 223632520#2 E3 -223632517 -258728090#0 671642282 223632526"/>
    </vehicle>
    <vehicle id="veh56" depart="99.12" departLane="best" departPos="random" departSpeed="max">
        <route edges="223632522 -649040853#1 -E3 -E2 -649064895 649064896#1 258728090#3"/>
    </vehicle>
    <vehicle id="veh57" depart="100.89" departLane="best" departPos="random" departSpeed="max">
        <route edges="649064896#1 258728090#3 258728090#4 -223632525#2"/>
    </vehicle>
    <vehicle id="veh58" depart="102.66" departLane="best" departPos="random" departSpeed="max">
        <route edges="-E4 649064895"/>
    </vehicle>
    <vehicle id="veh59" depart="104.43" departLane="best" departPos="random" departSpeed="max">
        <route edges="649064895 -649064895 649064896#1 -258728090#2 223632517"/>
    </vehicle>
    <vehicle id="veh61" depart="107.97" departLane="best" departPos="random" departSpeed="max">
        <route edges="258728090#4 -E1 -223632520#1 223632525#1"/>
    </vehicle>
    <vehicle id="veh62" depart="109.74" departLane="best" departPos="random" departSpeed="max">
        <route edges="E2 E3 -223632517 -258728090#0"/>
    </vehicle>
    <vehicle id="veh63" depart="111.51" departLane="best" departPos="random" departSpeed="max">
        <route edges="223632520#0 223632520#1 223632520#2 E3"/>
    </vehicle>
    <vehicle id="veh64" depart="113.28" departLane="best" departPos="random" departSpeed="max">
        <route edges="223632522 -649040853#1 -E3 -E2 -649064895 649064896#1 258728090#3"/>
    </vehicle>
    <vehicle id="veh65" depart="115.05" departLane="best" departPos="random" departSpeed="max">
        <route edges="-649036317#3 223632520#2 E3 649040853#1 -223632522"/>
    </vehicle>
    <vehicle id="veh66" depart="116.82" departLane="best" departPos="random" departSpeed="max">
        <route edges="-223632517 258728090#1 258728090#3 258728090#4 -223632525#2 -223632520#0"/>
    </vehicle>
    <vehicle id="veh67" depart="118.59" departLane="best" departPos="random" departSpeed="max">
        <route edges="-223632525#2 223632520#1 E1 -258728090#4 -258728090#3 -258728090#2 223632517"/>
    </vehicle>
    <vehicle id="veh68" depart="120.36" departLane="best" departPos="random" departSpeed="max">
        <route edges="223632520#2 -E2 -649064895 E4 -258728090#3 -649064896#1"/>
    </vehicle>
    <vehicle id="veh69" depart="122.13" departLane="best" departPos="random" departSpeed="max">
        <route edges="-649064896#1 649064895 E2 -223632520#2"/>
    </vehicle>
    <vehicle id="veh70" depart="123.90" departLane="best" departPos="random" departSpeed="max">
        <route edges="E1 -223632525#2 223632520#1 223632520#2 -E2"/>
    </vehicle>
    <vehicle id="veh72" depart="127.44" departLane="best" departPos="random" departSpeed="max">
        <route edges="-223632520#2"/>
    </vehicle>
    <vehicle id="veh73" depart="129.21" departLane="best" departPos="random" departSpeed="max">
        <route edges="-649036317#3 -223632520#1 -223632520#0"/>
    </vehicle>
    <vehicle id="veh74" depart="130.98" departLane="best" departPos="random" departSpeed="max">
        <route edges="-258728090#4 258728090#4 -223632525#2 223632520#1 E1"/>
    </vehicle>
    <vehicle id="veh75" depart="132.75" departLane="best" departPos="random" departSpeed="max">
        <route edges="-E1 223632520#2 -E2"/>
    </vehicle>
    <vehicle id="veh76" depart="134.52" departLane="best" departPos="random" departSpeed="max">
        <route edges="E1 -258728090#4 -258728090#3 -258728090#2 223632517"/>
    </vehicle>
    <vehicle id="veh77" depart="136.29" departLane="best" departPos="random" departSpeed="max">
        <route edges="-144943776 -649040853#1 -E3 -223632520#2"/>
    </vehicle>
    <vehicle id="veh78" depart="138.06" departLane="best" departPos="random" departSpeed="max">
        <route edges="-649064895 649064895 E2 E3 649040853#1 649040853#2"/>
    </vehicle>
    <vehicle id="veh79" depart="139.83" departLane="best" departPos="random" departSpeed="max">
        <route edges="-223632525#2 223632520#1 E1 -258728090#4 -258728090#3 -258728090#2"/>
    </vehicle>
    <vehicle id="veh80" depart="141.60" departLane="best" departPos="random" departSpeed="max">
        <route edges="223632520#0 223632525#1 -258728090#4 -258728090#3 -258728090#2 223632517"/>
    </vehicle>
    <vehicle id="veh81" depart="143.37" departLane="best" departPos="random" departSpeed="max">
        <route edges="258728090#1 258728090#3 258728090#4 -223632525#2 -223632525#0"/>
    </vehicle>
    <vehicle id="veh82" depart="145.14" departLane="best" departPos="random" departSpeed="max">
        <route edges="258728090#3 -E4 649064895 E2 E3 -223632517"/>
    </vehicle>
    <vehicle id="veh83" depart="146.91" departLane="best" departPos="random" departSpeed="max">
        <route edges="-144943776 -649040853#1 -E3 -E2 -649064895 E4 258728090#4"/>
    </vehicle>
    <vehicle id="veh84" depart="148.68" departLane="best" departPos="random" departSpeed="max">
        <route edges="223632525#0 223632525#1 -E1"/>
    </vehicle>
    <vehicle id="veh85" depart="150.45" departLane="best" departPos="random" departSpeed="max">
        <route edges="223632522 -649040853#1 -E3 -223632520#2"/>
    </vehicle>
    <vehicle id="veh86" depart="152.22" departLane="best" departPos="random" departSpeed="max">
        <route edges="258728090#3 -E4 649064896#1 -258728090#2 -258728090#0 671642282"/>
    </vehicle>
    <vehicle id="veh88" depart="155.76" departLane="best" departPos="random" departSpeed="max">
        <route edges="E1 -258728090#4 -E4 649064896#1 258728090#3"/>
    </vehicle>
    <vehicle id="veh89" depart="157.53" departLane="best" departPos="random" departSpeed="max">
        <route edges="E4 -258728090#3 -649064896#1 649064896#1 258728090#3"/>
    </vehicle>
    <vehicle id="veh91" depart="161.07" departLane="best" departPos="random" departSpeed="max">
        <route edges="E1 -223632525#2 223632520#1 649036317#3"/>
    </vehicle>
    <vehicle id="veh92" depart="162.84" departLane="best" departPos="random" departSpeed="max">
        <route edges="223632525#1 -258728090#4 -E4 649064895 E2 E3 649040853#1 -223632522"/>
    </vehicle>
    <vehicle id="veh93" depart="164.61" departLane="best" departPos="random" departSpeed="max">
        <route edges="649064895 E2 E3 649040853#1 -223632522"/>
    </vehicle>
    <vehicle id="veh94" depart="166.38" departLane="best" departPos="random" departSpeed="max">
        <route edges="-258728090#3 -649064896#1 E4 258728090#4 -223632525#2 -223632520#0"/>
    </vehicle>
    <vehicle id="veh95" depart="168.15" departLane="best" departPos="random" departSpeed="max">
        <route edges="-E3 -223632520#2"/>
    </vehicle>
    <vehicle id="veh96" depart="169.92" departLane="best" departPos="random" departSpeed="max">
        <route edges="-649064896#1 649064895 E2"/>
    </vehicle>
    <vehicle id="veh97" depart="171.69" departLane="best" departPos="random" departSpeed="max">
        <route edges="258728090#3 258728090#4 -223632525#2 223632520#1"/>
    </vehicle>
    <vehicle id="veh98" depart="173.46" departLane="best" departPos="random" departSpeed="max">
        <route edges="649064896#1 258728090#3 -E4 649064895 E2 -223632520#2"/>
    </vehicle>
    <vehicle id="veh99" depart="175.23" departLane="best" departPos="random" departSpeed="max">
        <route edges="223632522 -649040853#1 -223632517"/>
    </vehicle>
    <vehicle id="veh100" depart="177.00" departLane="best" departPos="random" departSpeed="max">
        <route edges="E2 -223632520#2 E1 -223632525#2"/>
    </vehicle>
    <vehicle id="veh102" depart="180.54" departLane="best" departPos="random" departSpeed="max">
        <route edges="-E4 649064895 E2 -223632520#2 -223632520#1 -223632520#0"/>
    </vehicle>
    <vehicle id="veh103" depart="182.31" departLane="best" departPos="random" departSpeed="max">
        <route edges="223632517 -E3 -223632520#2 -223632520#1 -223632525#0"/>
    </vehicle>
    <vehicle id="veh104" depart="184.08" departLane="best" departPos="random" departSpeed="max">
        <route edges="-649040853#1 -E3 -E2 -649064895 E4 258728090#4"/>
    </vehicle>
    <vehicle id="veh105" depart="185.85" departLane="best" departPos="random" departSpeed="max">
        <route edges="E1 -258728090#4 258728090#4"/>
    </vehicle>
    <vehicle id="veh106" depart="187.62" departLane="best" departPos="random" departSpeed="max">
        <route edges="223632522 -649040853#1 -E3 -E2 -649064895 649064895"/>
    </vehicle>
    <vehicle id="veh108" depart="191.16" departLane="best" departPos="random" departSpeed="max">
        <route edges="223632520#2 -E2 -649064895 649064896#1"/>
    </vehicle>
    <vehicle id="veh109" depart="192.93" departLane="best" departPos="random" departSpeed="max">
        <route edges="-223632525#2 223632520#1 223632520#2 E3 -223632517 -258728090#0 671642282 223632526"/>
    </vehicle>
    <vehicle id="veh110" depart="194.70" departLane="best" departPos="random" departSpeed="max">
        <route edges="223632520#2 -E2 -649064895"/>
    </vehicle>
    <vehicle id="veh112" depart="198.24" departLane="best" departPos="random" departSpeed="max">
        <route edges="-223632517 258728090#1 -649064896#1 649064895 E2 E3 649040853#1 649040853#2"/>
    </vehicle>
    <vehicle id="veh114" depart="201.78" departLane="best" departPos="random" departSpeed="max">
        <route edges="-223632517 258728090#1 258728090#3 258728090#4 -223632525#2"/>
    </vehicle>
    <vehicle id="veh115" depart="203.55" departLane="best" departPos="random" departSpeed="max">
        <route edges="258728090#3 -E4 649064895 E2"/>
    </vehicle>
    <vehicle id="veh116" depart="205.32" departLane="best" departPos="random" departSpeed="max">
        <route edges="258728090#1 258728090#3 258728090#4 -E1"/>
    </vehicle>
    <vehicle id="veh117" depart="207.09" departLane="best" departPos="random" departSpeed="max">
        <route edges="-671642282 258728090#0 258728090#1 -649064896#1 649064896#1 -258728090#2 -258728090#0 671642282"/>
    </vehicle>
    <vehicle id="veh118" depart="208.86" departLane="best" departPos="random" departSpeed="max">
        <route edges="-223632526 -671642282 258728090#0 258728090#1 -649064896#1 E4 -258728090#3"/>
    </vehicle>
    <vehicle id="veh119" depart="210.63" departLane="best" departPos="random" departSpeed="max">
        <route edges="223632517 649040853#1 -223632522"/>
    </vehicle>
    <vehicle id="veh120" depart="212.40" departLane="best" departPos="random" departSpeed="max">
        <route edges="223632522 -649040853#1 -E3 -E2"/>
    </vehicle>
    <vehicle id="veh121" depart="214.17" departLane="best" departPos="random" departSpeed="max">
        <route edges="-E4 649064896#1 -258728090#2 223632517 -E3"/>
    </vehicle>
    <vehicle id="veh122" depart="215.94" departLane="best" departPos="random" departSpeed="max">
        <route edges="649064896#1 258728090#3 258728090#4 -223632525#2 223632520#1 E1 -258728090#4"/>
    </vehicle>
    <vehicle id="veh123" depart="217.71" departLane="best" departPos="random" departSpeed="max">
        <route edges="-671642282 258728090#0 258728090#1 -649064896#1 649064895 E2"/>
    </vehicle>
    <vehicle id="veh124" depart="219.48" departLane="best" departPos="random" departSpeed="max">
        <route edges="-649064896#1 E4 258728090#4 -E1 223632520#2"/>
    </vehicle>
    <vehicle id="veh125" depart="221.25" departLane="best" departPos="random" departSpeed="max">
        <route edges="E1 -258728090#4 258728090#4 -E1"/>
    </vehicle>
    <vehicle id="veh126" depart="223.02" departLane="best" departPos="random" departSpeed="max">
        <route edges="649064895 E2 E3 -223632517"/>
    </vehicle>
    <vehicle id="veh127" depart="224.79" departLane="best" departPos="random" departSpeed="max">
        <route edges="649064895 E2 -223632520#2 -223632520#1 -223632525#0"/>
    </vehicle>
    <vehicle id="veh128" depart="226.56" departLane="best" departPos="random" departSpeed="max">
        <route edges="258728090#1 258728090#3 258728090#4 -223632525#2 223632520#1"/>
    </vehicle>
    <vehicle id="veh129" depart="228.33" departLane="best" departPos="random" departSpeed="max">
        <route edges="-671642282 258728090#0 258728090#1 -649064896#1 E4"/>
    </vehicle>
    <vehicle id="veh130" depart="230.10" departLane="best" departPos="random" departSpeed="max">
        <route edges="-E3 -E2 -649064895 649064896#1 -258728090#2 -258728090#0 671642282"/>
    </vehicle>
    <vehicle id="veh131" depart="231.87" departLane="best" departPos="random" departSpeed="max">
        <route edges="223632517 -E3 -E2 -649064895 E4 258728090#4 -223632525#2 223632520#1"/>
    </vehicle>
    <vehicle id="veh132" depart="233.64" departLane="best" departPos="random" departSpeed="max">
        <route edges="-649036317#3 223632520#2 -E2 -649064895 E4"/>
    </vehicle>
    <vehicle id="veh133" depart="235.41" departLane="best" departPos="random" departSpeed="max">
        <route edges="223632522 -649040853#1 -E3 -E2 -649064895 E4 258728090#4 -223632525#2"/>
    </vehicle>
    <vehicle id="veh134" depart="237.18" departLane="best" departPos="random" departSpeed="max">
        <route edges="223632522 -649040853#1 -E3 -223632520#2 E1 -258728090#4 -E4"/>
    </vehicle>
    <vehicle id="veh135" depart="238.95" departLane="best" departPos="random" departSpeed="max">
        <route edges="-649036317#3 223632520#2 -E2"/>
    </vehicle>
    <vehicle id="veh136" depart="240.72" departLane="best" departPos="random" departSpeed="max">
        <route edges="-649040853#1 -E3 -223632520#2 -223632520#1 -223632520#0"/>
    </vehicle>
    <vehicle id="veh137" depart="242.49" departLane="best" departPos="random" departSpeed="max">
        <route edges="223632520#0 223632520#1 223632520#2 E3 -223632517 -258728090#0"/>
    </vehicle>
    <vehicle id="veh138" depart="244.26" departLane="best" departPos="random" departSpeed="max">
        <route edges="-671642282 258728090#0 223632517"/>
    </vehicle>
    <vehicle id="veh139" depart="246.03" departLane="best" departPos="random" departSpeed="max">
        <route edges="649064895 E2 -223632520#2 649036317#3"/>
    </vehicle>
    <vehicle id="veh140" depart="247.80" departLane="best" departPos="random" departSpeed="max">
        <route edges="258728090#0 258728090#1 -649064896#1 649064896#1 -258728090#2 -258728090#0"/>
    </vehicle>
    <vehicle id="veh141" depart="249.57" departLane="best" departPos="random" departSpeed="max">
        <route edges="223632525#0 223632520#1 E1 -223632525#2"/>
    </vehicle>
    <vehicle id="veh143" depart="253.11" departLane="best" departPos="random" departSpeed="max">
        <route edges="-E1 223632520#2 -E2 -649064895 649064896#1"/>
    </vehicle>
    <vehicle id="veh144" depart="254.88" departLane="best" departPos="random" departSpeed="max">
        <route edges="-223632520#1 -223632520#0"/>
    </vehicle>
    <vehicle id="veh145" depart="256.65" departLane="best" departPos="random" departSpeed="max">
        <route edges="-E3 -E2 -649064895 649064895 E2"/>
    </vehicle>
    <vehicle id="veh146" depart="258.42" departLane="best" departPos="random" departSpeed="max">
        <route edges="E3 -223632517 258728090#1 -649064896#1 E4 -258728090#3"/>
    </vehicle>
    <vehicle id="veh147" depart="260.19" departLane="best" departPos="random" departSpeed="max">
        <route edges="-223632520#1 223632525#1 -258728090#4 -E4 649064895 E2 E3 649040853#1 649040853#2"/>
    </vehicle>
    <vehicle id="veh148" depart="261.96" departLane="best" departPos="random" departSpeed="max">
        <route edges="223632520#1 E1"/>
    </vehicle>
    <vehicle id="veh149" depart="263.73" departLane="best" departPos="random" departSpeed="max">
        <route edges="-223632526 -671642282 258728090#0 223632517 649040853#1"/>
    </vehicle>
    <vehicle id="veh150" depart="265.50" departLane="best" departPos="random" departSpeed="max">
        <route edges="-E3 -E2 -649064895 649064896#1 -258728090#2 -258728090#0 671642282 223632526"/>
    </vehicle>
    <vehicle id="veh151" depart="267.27" departLane="best" departPos="random" departSpeed="max">
        <route edges="-E1 223632520#2 E3 649040853#1 -223632522"/>
    </vehicle>
    <vehicle id="veh152" depart="269.04" departLane="best" departPos="random" departSpeed="max">
        <route edges="258728090#4 -223632525#2 223632520#1 E1 -258728090#4 -E4"/>
    </vehicle>
    <vehicle id="veh153" depart="270.81" departLane="best" departPos="random" departSpeed="max">
        <route edges="-223632526 -671642282 258728090#0 223632517 649040853#1 -223632522"/>
    </vehicle>
    <vehicle id="veh154" depart="272.58" departLane="best" departPos="random" departSpeed="max">
        <route edges="223632522 -649040853#1 -E3"/>
    </vehicle>
    <vehicle id="veh156" depart="276.12" departLane="best" departPos="random" departSpeed="max">
        <route edges="223632520#0 223632525#1 -258728090#4 -258728090#3 -258728090#2 223632517"/>
    </vehicle>
    <vehicle id="veh157" depart="277.89" departLane="best" departPos="random" departSpeed="max">
        <route edges="-E3 -223632520#2 649036317#3"/>
    </vehicle>
    <vehicle id="veh158" depart="279.66" departLane="best" departPos="random" departSpeed="max">
        <route edges="223632525#0 223632520#1 223632520#2 -E2 -649064895"/>
    </vehicle>
    <vehicle id="veh159" depart="281.43" departLane="best" departPos="random" departSpeed="max">
        <route edges="649064895 E2 E3 649040853#1 649040853#2"/>
    </vehicle>
    <vehicle id="veh160" depart="283.20" departLane="best" departPos="random" departSpeed="max">
        <route edges="E1 -258728090#4 258728090#4 -E1"/>
    </vehicle>
    <vehicle id="veh161" depart="284.97" departLane="best" departPos="random" departSpeed="max">
        <route edges="-649040853#1 -E3 -E2"/>
    </vehicle>
    <vehicle id="veh162" depart="286.74" departLane="best" departPos="random" departSpeed="max">
        <route edges="223632520#0 223632520#1 223632520#2 E3 649040853#1"/>
    </vehicle>
    <vehicle id="veh163" depart="288.51" departLane="best" departPos="random" departSpeed="max">
        <route edges="223632520#0 223632520#1 649036317#3"/>
    </vehicle>
    <vehicle id="veh164" depart="290.28" departLane="best" departPos="random" departSpeed="max">
        <route edges="649064896#1 -258728090#2 -258728090#0 671642282 223632526"/>
    </vehicle>
    <vehicle id="veh166" depart="293.82" departLane="best" departPos="random" departSpeed="max">
        <route edges="-258728090#4 258728090#4 -E1 -223632520#1"/>
    </vehicle>
    <vehicle id="veh167" depart="295.59" departLane="best" departPos="random" departSpeed="max">
        <route edges="-144943776 -649040853#1 -E3 -E2 -649064895 649064895 E2 E3"/>
    </vehicle>
    <vehicle id="veh168" depart="297.36" departLane="best" departPos="random" departSpeed="max">
        <route edges="-223632520#2 E1 -258728090#4 -258728090#3 -258728090#2"/>
    </vehicle>
    <vehicle id="veh169" depart="299.13" departLane="best" departPos="random" departSpeed="max">
        <route edges="223632520#0 223632520#1 223632520#2"/>
    </vehicle>
    <vehicle id="veh170" depart="300.90" departLane="best" departPos="random" departSpeed="max">