<?xml version="1.0" encoding="UTF-8"?>

<!-- generated on 2025-05-11 06:58:50.510148 by randomTrips.py v1_22_0+0002-63e50f52594
<configuration>
    <net-file value="E:/licenta/oras-mic/2025-05-08-13-35-40\osm.net.xml"/>
    <output-trip-file value="E:/licenta/oras-mic/2025-05-08-13-35-40\trips.trips.xml"/>
    <route-file value="E:/licenta/oras-mic/2025-05-08-13-35-40\generated_routes\routes_worker3_c3eab0f8.rou.xml"/>
    <prefix value="veh"/>
    <trip-attributes value="departLane=&quot;best&quot; departSpeed=&quot;max&quot; departPos=&quot;random&quot;"/>
    <fringe-factor value="3.5"/>
    <seed value="13806"/>
    <end value="600.0"/>
    <period value="2.32"/>
</configuration>
-->

<!-- generated on 2025-05-11 06:58:50 by Eclipse SUMO duarouter Version 1.22.0
<duarouterConfiguration xmlns:xsi="http://www.w3.org/2001/XMLSchema-instance" xsi:noNamespaceSchemaLocation="http://sumo.dlr.de/xsd/duarouterConfiguration.xsd">

    <input>
        <net-file value="E:/licenta/oras-mic/2025-05-08-13-35-40\osm.net.xml"/>
        <route-files value="E:/licenta/oras-mic/2025-05-08-13-35-40\trips.trips.xml"/>
    </input>

    <output>
        <output-file value="E:/licenta/oras-mic/2025-05-08-13-35-40\generated_routes\routes_worker3_c3eab0f8.rou.xml"/>
        <alternatives-output value="NUL"/>
    </output>

    <time>
        <begin value="0"/>
        <end value="600.0"/>
    </time>

    <report>
        <no-warnings value="true"/>
        <ignore-errors value="true"/>
        <no-step-log value="true"/>
    </report>

</duarouterConfiguration>
-->

<routes xmlns:xsi="http://www.w3.org/2001/XMLSchema-instance" xsi:noNamespaceSchemaLocation="http://sumo.dlr.de/xsd/routes_file.xsd">
    <vehicle id="veh0" depart="0.00" departLane="best" departPos="random" departSpeed="max">
        <route edges="223632517 -E3 -E2 -649064895 E4 258728090#4 -E1"/>
    </vehicle>
    <vehicle id="veh1" depart="2.04" departLane="best" departPos="random" departSpeed="max">
        <route edges="223632525#0 223632525#1 -258728090#4"/>
    </vehicle>
    <vehicle id="veh2" depart="4.08" departLane="best" departPos="random" departSpeed="max">
        <route edges="223632522 -649040853#1 -E3 -E2 -649064895 E4 258728090#4"/>
    </vehicle>
    <vehicle id="veh3" depart="6.12" departLane="best" departPos="random" departSpeed="max">
        <route edges="223632525#0 223632525#1 -258728090#4 -258728090#3 -258728090#2"/>
    </vehicle>
    <vehicle id="veh4" depart="8.16" departLane="best" departPos="random" departSpeed="max">
        <route edges="223632525#0 223632525#1 -258728090#4 -E4 649064896#1 258728090#3"/>
    </vehicle>
    <vehicle id="veh5" depart="10.20" departLane="best" departPos="random" departSpeed="max">
        <route edges="258728090#1 258728090#3 258728090#4 -223632525#2 -223632520#0"/>
    </vehicle>
    <vehicle id="veh6" depart="12.24" departLane="best" departPos="random" departSpeed="max">
        <route edges="-144943776 -649040853#1 -223632517 -258728090#0 671642282 223632526"/>
    </vehicle>
    <vehicle id="veh7" depart="14.28" departLane="best" departPos="random" departSpeed="max">
        <route edges="-144943776 -649040853#1 -223632517 -258728090#0 671642282 223632526"/>
    </vehicle>
    <vehicle id="veh8" depart="16.32" departLane="best" departPos="random" departSpeed="max">
        <route edges="E3 -223632517 258728090#1 258728090#3 258728090#4 -223632525#2 -223632525#0"/>
    </vehicle>
    <vehicle id="veh9" depart="18.36" departLane="best" departPos="random" departSpeed="max">
        <route edges="-223632526 -671642282 258728090#0 258728090#1 258728090#3"/>
    </vehicle>
    <vehicle id="veh10" depart="20.40" departLane="best" departPos="random" departSpeed="max">
        <route edges="-258728090#3 -649064896#1 649064895 E2 E3 649040853#1 649040853#2"/>
    </vehicle>
    <vehicle id="veh11" depart="22.44" departLane="best" departPos="random" departSpeed="max">
        <route edges="649064895 -649064895 E4 258728090#4 -E1 223632520#2 -E2"/>
    </vehicle>
    <vehicle id="veh12" depart="24.48" departLane="best" departPos="random" departSpeed="max">
        <route edges="-E1 223632520#2 E3 -223632517 258728090#1"/>
    </vehicle>
    <vehicle id="veh13" depart="26.52" departLane="best" departPos="random" departSpeed="max">
        <route edges="223632522 -649040853#1"/>
    </vehicle>
    <vehicle id="veh14" depart="28.56" departLane="best" departPos="random" departSpeed="max">
        <route edges="-144943776 -223632522"/>
    </vehicle>
    <vehicle id="veh15" depart="30.60" departLane="best" departPos="random" departSpeed="max">
        <route edges="223632525#0 223632520#1"/>
    </vehicle>
    <vehicle id="veh16" depart="32.64" departLane="best" departPos="random" departSpeed="max">
        <route edges="223632522 -649040853#1 -223632517 258728090#1"/>
    </vehicle>
    <vehicle id="veh18" depart="36.72" departLane="best" departPos="random" departSpeed="max">
        <route edges="258728090#1 258728090#3 258728090#4 -223632525#2 223632520#1"/>
    </vehicle>
    <vehicle id="veh20" depart="40.80" departLane="best" departPos="random" departSpeed="max">
        <route edges="-649064895 649064895 E2 E3 649040853#1 649040853#2"/>
    </vehicle>
    <vehicle id="veh21" depart="42.84" departLane="best" departPos="random" departSpeed="max">
        <route edges="-649036317#3 -223632520#1 -223632525#0"/>
    </vehicle>
    <vehicle id="veh22" depart="44.88" departLane="best" departPos="random" departSpeed="max">
        <route edges="E3 649040853#1 649040853#2"/>
    </vehicle>
    <vehicle id="veh23" depart="46.92" departLane="best" departPos="random" departSpeed="max">
        <route edges="-258728090#4 258728090#4 -223632525#2"/>
    </vehicle>
    <vehicle id="veh24" depart="48.96" departLane="best" departPos="random" departSpeed="max">
        <route edges="223632522 -649040853#1 -E3 -E2"/>
    </vehicle>
    <vehicle id="veh25" depart="51.00" departLane="best" departPos="random" departSpeed="max">
        <route edges="-E4 649064895 E2 E3 -223632517 258728090#1"/>
    </vehicle>
    <vehicle id="veh26" depart="53.04" departLane="best" departPos="random" departSpeed="max">
        <route edges="649064895 E2 -223632520#2 -223632520#1 -223632525#0"/>
    </vehicle>
    <vehicle id="veh27" depart="55.08" departLane="best" departPos="random" departSpeed="max">
        <route edges="223632525#0 223632520#1 223632520#2 E3 -223632517 -258728090#0 671642282 223632526"/>
    </vehicle>
    <vehicle id="veh28" depart="57.12" departLane="best" departPos="random" departSpeed="max">
        <route edges="223632520#0 223632520#1 223632520#2 E3 649040853#1 -223632522"/>
    </vehicle>
    <vehicle id="veh29" depart="59.16" departLane="best" departPos="random" departSpeed="max">
        <route edges="649064896#1 258728090#3 258728090#4 -223632525#2 223632520#1 E1 -258728090#4"/>
    </vehicle>
    <vehicle id="veh30" depart="61.20" departLane="best" departPos="random" departSpeed="max">
        <route edges="-223632525#2 223632520#1 223632520#2"/>
    </vehicle>
    <vehicle id="veh31" depart="63.24" departLane="best" departPos="random" departSpeed="max">
        <route edges="-E3 -E2 -649064895 649064896#1"/>
    </vehicle>
    <vehicle id="veh32" depart="65.28" departLane="best" departPos="random" departSpeed="max">
        <route edges="-258728090#3 -649064896#1 649064896#1 258728090#3 -E4"/>
    </vehicle>
    <vehicle id="veh33" depart="67.32" departLane="best" departPos="random" departSpeed="max">
        <route edges="258728090#0 223632517 -E3 -223632520#2 E1 -258728090#4"/>
    </vehicle>
    <vehicle id="veh34" depart="69.36" departLane="best" departPos="random" departSpeed="max">
        <route edges="-649036317#3 -223632520#1 -223632525#0"/>
    </vehicle>
    <vehicle id="veh35" depart="71.40" departLane="best" departPos="random" departSpeed="max">
        <route edges="-144943776 -649040853#1 -E3 -223632520#2 E1 -258728090#4"/>
    </vehicle>
    <vehicle id="veh36" depart="73.44" departLane="best" departPos="random" departSpeed="max">
        <route edges="-258728090#4 -E4 649064896#1"/>
    </vehicle>
    <vehicle id="veh37" depart="75.48" departLane="best" departPos="random" departSpeed="max">
        <route edges="649064895 -649064895 E4 -258728090#3 -649064896#1"/>
    </vehicle>
    <vehicle id="veh38" depart="77.52" departLane="best" departPos="random" departSpeed="max">
        <route edges="-258728090#4 -E4 649064895 E2 E3 649040853#1 649040853#2"/>
    </vehicle>
    <vehicle id="veh39" depart="79.56" departLane="best" departPos="random" departSpeed="max">
        <route edges="-223632520#2 E1 -258728090#4 -E4 649064895 E2 E3 -223632517"/>
    </vehicle>
    <vehicle id="veh40" depart="81.60" departLane="best" departPos="random" departSpeed="max">
        <route edges="E4 -258728090#3 -649064896#1 649064895 E2"/>
    </vehicle>
    <vehicle id="veh41" depart="83.64" departLane="best" departPos="random" departSpeed="max">
        <route edges="258728090#1 -649064896#1 649064896#1 -258728090#2 223632517 -E3"/>
    </vehicle>
    <vehicle id="veh42" depart="85.68" departLane="best" departPos="random" departSpeed="max">
        <route edges="223632522 649040853#2"/>
    </vehicle>
    <vehicle id="veh44" depart="89.76" departLane="best" departPos="random" departSpeed="max">
        <route edges="-258728090#4 -E4 649064895 E2 -223632520#2"/>
    </vehicle>
    <vehicle id="veh45" depart="91.80" departLane="best" departPos="random" departSpeed="max">
        <route edges="223632525#0 223632520#1 E1 -223632525#2 -223632525#0"/>
    </vehicle>
    <vehicle id="veh46" depart="93.84" departLane="best" departPos="random" departSpeed="max">
        <route edges="223632522 -649040853#1 -E3 -223632520#2 E1 -258728090#4"/>
    </vehicle>
    <vehicle id="veh47" depart="95.88" departLane="best" departPos="random" departSpeed="max">
        <route edges="649064896#1 -258728090#2 -258728090#0"/>
    </vehicle>
    <vehicle id="veh48" depart="97.92" departLane="best" departPos="random" departSpeed="max">
        <route edges="223632520#0 -223632525#0"/>
    </vehicle>
    <vehicle id="veh49" depart="99.96" departLane="best" departPos="random" departSpeed="max">
        <route edges="-223632525#2 -223632520#0"/>
    </vehicle>
    <vehicle id="veh50" depart="102.00" departLane="best" departPos="random" departSpeed="max">
        <route edges="223632520#0 223632525#1 -258728090#4"/>
    </vehicle>
    <vehicle id="veh51" depart="104.04" departLane="best" departPos="random" departSpeed="max">
        <route edges="-258728090#3 -258728090#2 223632517 -E3 -E2"/>
    </vehicle>
    <vehicle id="veh52" depart="106.08" departLane="best" departPos="random" departSpeed="max">
        <route edges="-649064895"/>
    </vehicle>
    <vehicle id="veh53" depart="108.12" departLane="best" departPos="random" departSpeed="max">
        <route edges="-258728090#4 258728090#4 -E1"/>
    </vehicle>
    <vehicle id="veh54" depart="110.16" departLane="best" departPos="random" departSpeed="max">
        <route edges="-649036317#3 223632520#2 -E2 -649064895 E4"/>
    </vehicle>
    <vehicle id="veh55" depart="112.20" departLane="best" departPos="random" departSpeed="max">
        <route edges="223632520#0 223632520#1 649036317#3"/>
    </vehicle>
    <vehicle id="veh56" depart="114.24" departLane="best" departPos="random" departSpeed="max">
        <route edges="258728090#0 258728090#1 -649064896#1 649064895 E2"/>
    </vehicle>
    <vehicle id="veh57" depart="116.28" departLane="best" departPos="random" departSpeed="max">
        <route edges="-223632517 258728090#1 -649064896#1 649064896#1 -258728090#2 223632517"/>
    </vehicle>
    <vehicle id="veh58" depart="118.32" departLane="best" departPos="random" departSpeed="max">
        <route edges="-223632525#2 223632520#1 223632520#2 -E2 -649064895 649064896#1 258728090#3"/>
    </vehicle>
    <vehicle id="veh60" depart="122.40" departLane="best" departPos="random" departSpeed="max">
        <route edges="-144943776 -649040853#1 -E3 -223632520#2 649036317#3"/>
    </vehicle>
    <vehicle id="veh61" depart="124.44" departLane="best" departPos="random" departSpeed="max">
        <route edges="223632522 -649040853#1 -E3 -E2 -649064895 E4 258728090#4 -223632525#2 223632520#1"/>
    </vehicle>
    <vehicle id="veh62" depart="126.48" departLane="best" departPos="random" departSpeed="max">
        <route edges="-144943776 -649040853#1 -E3 -E2 -649064895 649064895 E2 E3 649040853#1"/>
    </vehicle>
    <vehicle id="veh63" depart="128.52" departLane="best" departPos="random" departSpeed="max">
        <route edges="-649036317#3 E1 -258728090#4 -E4 649064895 E2"/>
    </vehicle>
    <vehicle id="veh64" depart="130.56" departLane="best" departPos="random" departSpeed="max">
        <route edges="-258728090#4 258728090#4 -223632525#2"/>
    </vehicle>
    <vehicle id="veh65" depart="132.60" departLane="best" departPos="random" departSpeed="max">
        <route edges="E2 E3 649040853#1 -223632522"/>
    </vehicle>
    <vehicle id="veh66" depart="134.64" departLane="best" departPos="random" departSpeed="max">
        <route edges="223632520#0 223632525#1 -258728090#4 -258728090#3 -258728090#2"/>
    </vehicle>
    <vehicle id="veh67" depart="136.68" departLane="best" departPos="random" departSpeed="max">
        <route edges="-649036317#3 223632520#2 E3 -223632517 -258728090#0 671642282"/>
    </vehicle>
    <vehicle id="veh68" depart="138.72" departLane="best" departPos="random" departSpeed="max">
        <route edges="223632517 -E3 -E2 -649064895 E4"/>
    </vehicle>
    <vehicle id="veh69" depart="140.76" departLane="best" departPos="random" departSpeed="max">
        <route edges="-223632526 -671642282 258728090#0 258728090#1 258728090#3 258728090#4"/>
    </vehicle>
    <vehicle id="veh70" depart="142.80" departLane="best" departPos="random" departSpeed="max">
        <route edges="223632525#0 223632525#1 -258728090#4 -258728090#3 -258728090#2"/>
    </vehicle>
    <vehicle id="veh71" depart="144.84" departLane="best" departPos="random" departSpeed="max">
        <route edges="-223632526 -671642282 258728090#0 258728090#1 -649064896#1 649064896#1"/>
    </vehicle>
    <vehicle id="veh72" depart="146.88" departLane="best" departPos="random" departSpeed="max">
        <route edges="E4 -258728090#3"/>
    </vehicle>
    <vehicle id="veh73" depart="148.92" departLane="best" departPos="random" departSpeed="max">
        <route edges="223632522 -649040853#1 -E3 -223632520#2 649036317#3"/>
    </vehicle>
    <vehicle id="veh74" depart="150.96" departLane="best" departPos="random" departSpeed="max">
        <route edges="223632520#0 223632520#1 223632520#2 E3 -223632517 258728090#1"/>
    </vehicle>
    <vehicle id="veh76" depart="155.04" departLane="best" departPos="random" departSpeed="max">
        <route edges="223632525#1 -E1 -223632520#1 -223632525#0"/>
    </vehicle>
    <vehicle id="veh77" depart="157.08" departLane="best" departPos="random" departSpeed="max">
        <route edges="223632520#0 223632520#1 223632520#2 E3 -223632517 -258728090#0 671642282 223632526"/>
    </vehicle>
    <vehicle id="veh79" depart="161.16" departLane="best" departPos="random" departSpeed="max">
        <route edges="223632522 -649040853#1 -223632517 -258728090#0"/>
    </vehicle>
    <vehicle id="veh80" depart="163.20" departLane="best" departPos="random" departSpeed="max">
        <route edges="-223632526 -671642282 258728090#0 223632517 -E3 -E2 -649064895"/>
    </vehicle>
    <vehicle id="veh82" depart="167.28" departLane="best" departPos="random" departSpeed="max">
        <route edges="223632522 -649040853#1 -223632517 -258728090#0 671642282 223632526"/>
    </vehicle>
    <vehicle id="veh84" depart="171.36" departLane="best" departPos="random" departSpeed="max">
        <route edges="-223632526 -671642282 258728090#0 258728090#1 -649064896#1 649064895 E2 E3"/>
    </vehicle>
    <vehicle id="veh85" depart="173.40" departLane="best" departPos="random" departSpeed="max">
        <route edges="223632522 649040853#2"/>
    </vehicle>
    <vehicle id="veh86" depart="175.44" departLane="best" departPos="random" departSpeed="max">
        <route edges="223632525#0 223632520#1 223632520#2 E3 649040853#1 649040853#2"/>
    </vehicle>
    <vehicle id="veh87" depart="177.48" departLane="best" departPos="random" departSpeed="max">
        <route edges="223632522 649040853#2"/>
    </vehicle>
    <vehicle id="veh88" depart="179.52" departLane="best" departPos="random" departSpeed="max">
        <route edges="-223632520#2 E1 -258728090#4 -258728090#3 -258728090#2 223632517 -E3"/>
    </vehicle>
    <vehicle id="veh89" depart="181.56" departLane="best" departPos="random" departSpeed="max">
        <route edges="223632520#0 223632520#1 E1 -223632525#2 -223632520#0"/>
    </vehicle>
    <vehicle id="veh90" depart="183.60" departLane="best" departPos="random" departSpeed="max">
        <route edges="223632525#1 -258728090#4 -258728090#3 -649064896#1"/>
    </vehicle>
    <vehicle id="veh91" depart="185.64" departLane="best" departPos="random" departSpeed="max">
        <route edges="E2 -223632520#2 -223632520#1 -223632520#0"/>
    </vehicle>
    <vehicle id="veh92" depart="187.68" departLane="best" departPos="random" departSpeed="max">
        <route edges="223632525#0 223632520#1 E1 -223632525#2 -223632525#0"/>
    </vehicle>
    <vehicle id="veh93" depart="189.72" departLane="best" departPos="random" departSpeed="max">
        <route edges="649064896#1"/>
    </vehicle>
    <vehicle id="veh94" depart="191.76" departLane="best" departPos="random" departSpeed="max">
        <route edges="649064895 E2 E3 -223632517 258728090#1"/>
    </vehicle>
    <vehicle id="veh95" depart="193.80" departLane="best" departPos="random" departSpeed="max">
        <route edges="-671642282 258728090#0 223632517 -E3 -223632520#2 -223632520#1 -223632520#0"/>
    </vehicle>
    <vehicle id="veh96" depart="195.84" departLane="best" departPos="random" departSpeed="max">
        <route edges="258728090#0 223632517"/>
    </vehicle>
    <vehicle id="veh97" depart="197.88" departLane="best" departPos="random" departSpeed="max">
        <route edges="258728090#0 258728090#1 -649064896#1 649064896#1 -258728090#2 -258728090#0 671642282"/>
    </vehicle>
    <vehicle id="veh98" depart="199.92" departLane="best" departPos="random" departSpeed="max">
        <route edges="-144943776 -649040853#1 -E3 -E2 -649064895 649064895 E2 E3 649040853#1 649040853#2"/>
    </vehicle>
    <vehicle id="veh99" depart="201.96" departLane="best" departPos="random" departSpeed="max">
        <route edges="-E3 -E2 -649064895 649064895 E2 E3 -223632517 258728090#1"/>
    </vehicle>
    <vehicle id="veh100" depart="204.00" departLane="best" departPos="random" departSpeed="max">
        <route edges="649064896#1 -258728090#2 -258728090#0 671642282"/>
    </vehicle>
    <vehicle id="veh102" depart="208.08" departLane="best" departPos="random" departSpeed="max">
        <route edges="223632522 -649040853#1 -E3 -E2 -649064895 649064896#1"/>
    </vehicle>
    <vehicle id="veh103" depart="210.12" departLane="best" departPos="random" departSpeed="max">
        <route edges="258728090#3 -E4 649064895 E2 E3 649040853#1"/>
    </vehicle>
    <vehicle id="veh104" depart="212.16" departLane="best" departPos="random" departSpeed="max">
        <route edges="258728090#0 258728090#1 258728090#3 258728090#4 -223632525#2 223632520#1"/>
    </vehicle>
    <vehicle id="veh105" depart="214.20" departLane="best" departPos="random" departSpeed="max">
        <route edges="-223632526 -671642282 258728090#0 223632517"/>
    </vehicle>
    <vehicle id="veh106" depart="216.24" departLane="best" departPos="random" departSpeed="max">
        <route edges="-649036317#3 223632520#2 E3 649040853#1 -223632522"/>
    </vehicle>
    <vehicle id="veh107" depart="218.28" departLane="best" departPos="random" departSpeed="max">
        <route edges="-649064895 649064896#1 -258728090#2 -258728090#0 671642282"/>
    </vehicle>
    <vehicle id="veh108" depart="220.32" departLane="best" departPos="random" departSpeed="max">
        <route edges="-258728090#3 -649064896#1 649064895 E2 E3 649040853#1 -223632522"/>
    </vehicle>
    <vehicle id="veh109" depart="222.36" departLane="best" departPos="random" departSpeed="max">
        <route edges="-649064895 649064895 E2 E3 649040853#1 -223632522"/>
    </vehicle>
    <vehicle id="veh110" depart="224.40" departLane="best" departPos="random" departSpeed="max">
        <route edges="258728090#1 -649064896#1 649064896#1 -258728090#2 -258728090#0 671642282 223632526"/>
    </vehicle>
    <vehicle id="veh111" depart="226.44" departLane="best" departPos="random" departSpeed="max">
        <route edges="-E3 -223632520#2 -223632520#1 -223632525#0"/>
    </vehicle>
    <vehicle id="veh112" depart="228.48" departLane="best" departPos="random" departSpeed="max">
        <route edges="-E3 -223632520#2 -223632520#1 -223632520#0"/>
    </vehicle>
    <vehicle id="veh113" depart="230.52" departLane="best" departPos="random" departSpeed="max">
        <route edges="E4 258728090#4 -E1 223632520#2 E3 649040853#1"/>
    </vehicle>
    <vehicle id="veh115" depart="234.60" departLane="best" departPos="random" departSpeed="max">
        <route edges="E4 258728090#4 -E1 223632520#2 E3 649040853#1"/>
    </vehicle>
    <vehicle id="veh116" depart="236.64" departLane="best" departPos="random" departSpeed="max">
        <route edges="649064895 E2 E3"/>
    </vehicle>
    <vehicle id="veh117" depart="238.68" departLane="best" departPos="random" departSpeed="max">
        <route edges="-649040853#1 -E3 -E2 -649064895 649064895 E2"/>
    </vehicle>
    <vehicle id="veh118" depart="240.72" departLane="best" departPos="random" departSpeed="max">
        <route edges="-223632520#2 E1 -223632525#2 223632520#1 223632520#2 -E2"/>
    </vehicle>
    <vehicle id="veh119" depart="242.76" departLane="best" departPos="random" departSpeed="max">
        <route edges="-258728090#0 671642282 223632526"/>
    </vehicle>
    <vehicle id="veh120" depart="244.80" departLane="best" departPos="random" departSpeed="max">
        <route edges="-144943776 -649040853#1 -E3 -223632520#2"/>
    </vehicle>
    <vehicle id="veh121" depart="246.84" departLane="best" departPos="random" departSpeed="max">
        <route edges="E3 -223632517 258728090#1 258728090#3 258728090#4 -E1 649036317#3"/>
    </vehicle>
    <vehicle id="veh122" depart="248.88" departLane="best" departPos="random" departSpeed="max">
        <route edges="223632522 -649040853#1"/>
    </vehicle>
    <vehicle id="veh123" depart="250.92" departLane="best" departPos="random" departSpeed="max">
        <route edges="-E4 649064895 E2 E3 649040853#1 -223632522"/>
    </vehicle>
    <vehicle id="veh124" depart="252.96" departLane="best" departPos="random" departSpeed="max">
        <route edges="-223632525#2 223632520#1 223632520#2 E3 -223632517 -258728090#0 671642282 223632526"/>
    </vehicle>
    <vehicle id="veh125" depart="255.00" departLane="best" departPos="random" departSpeed="max">
        <route edges="-649036317#3 -223632520#1 223632525#1 -E1"/>
    </vehicle>
    <vehicle id="veh126" depart="257.04" departLane="best" departPos="random" departSpeed="max">
        <route edges="-649036317#3 223632520#2 -E2 -649064895"/>
    </vehicle>
    <vehicle id="veh127" depart="259.08" departLane="best" departPos="random" departSpeed="max">
        <route edges="-649064895 649064896#1 -258728090#2 223632517"/>
    </vehicle>
    <vehicle id="veh128" depart="261.12" departLane="best" departPos="random" departSpeed="max">
        <route edges="-E3 -E2 -649064895 649064896#1 258728090#3"/>
    </vehicle>
    <vehicle id="veh129" depart="263.16" departLane="best" departPos="random" departSpeed="max">
        <route edges="-649036317#3 E1 -258728090#4 -258728090#3"/>
    </vehicle>
    <vehicle id="veh130" depart="265.20" departLane="best" departPos="random" departSpeed="max">
        <route edges="E3 -223632517 -258728090#0 671642282"/>
    </vehicle>
    <vehicle id="veh131" depart="267.24" departLane="best" departPos="random" departSpeed="max">
        <route edges="258728090#4 -E1 -223632520#1 223632525#1"/>
    </vehicle>
    <vehicle id="veh132" depart="269.28" departLane="best" departPos="random" departSpeed="max">
        <route edges="223632520#0 223632525#1"/>
    </vehicle>
    <vehicle id="veh133" depart="271.32" departLane="best" departPos="random" departSpeed="max">
        <route edges="223632525#0 223632520#1 223632520#2 E3 649040853#1 649040853#2"/>
    </vehicle>
    <vehicle id="veh134" depart="273.36" departLane="best" departPos="random" departSpeed="max">
        <route edges="-223632520#1 223632525#1 -258728090#4 -E4 649064895"/>
    </vehicle>
    <vehicle id="veh135" depart="275.40" departLane="best" departPos="random" departSpeed="max">
        <route edges="258728090#0 223632517 -E3 -223632520#2"/>
    </vehicle>
    <vehicle id="veh136" depart="277.44" departLane="best" departPos="random" departSpeed="max">
        <route edges="-223632526 -671642282 258728090#0 223632517 -E3 -E2"/>
    </vehicle>
    <vehicle id="veh137" depart="279.48" departLane="best" departPos="random" departSpeed="max">
        <route edges="-223632520#2 E1 -258728090#4 -E4 649064895 E2 E3 649040853#1 -223632522"/>
    </vehicle>
    <vehicle id="veh138" depart="281.52" departLane="best" departPos="random" departSpeed="max">
        <route edges="E2 -223632520#2 E1 -223632525#2 223632520#1 223632520#2 -E2"/>
    </vehicle>
    <vehicle id="veh139" depart="283.56" departLane="best" departPos="random" departSpeed="max">
        <route edges="-649036317#3 E1 -258728090#4 -258728090#3 -258728090#2 223632517"/>
    </vehicle>
    <vehicle id="veh140" depart="285.60" departLane="best" departPos="random" departSpeed="max">
        <route edges="-144943776 -649040853#1 -E3 -E2 -649064895 E4 258728090#4 -223632525#2 223632520#1"/>
    </vehicle>
    <vehicle id="veh141" depart="287.64" departLane="best" departPos="random" departSpeed="max">
        <route edges="-223632526 -671642282 258728090#0 223632517 -E3 -223632520#2 -223632520#1 -223632525#0"/>
    </vehicle>
    <vehicle id="veh142" depart="289.68" departLane="best" departPos="random" departSpeed="max">
        <route edges="258728090#4 -E1 223632520#2 -E2 -649064895 E4"/>
    </vehicle>
    <vehicle id="veh145" depart="295.80" departLane="best" departPos="random" departSpeed="max">
        <route edges="-649040853#1 -E3 -E2 -649064895 E4 -258728090#3 -649064896#1"/>
    </vehicle>
    <vehicle id="veh147" depart="299.88" departLane="best" departPos="random" departSpeed="max">
        <route edges="258728090#4 -E1 223632520#2 E3 649040853#1 -223632522"/>
    </vehicle>
    <vehicle id="veh148" depart="301.92" departLane="best" departPos="random" departSpeed="max">
        <route edges="-144943776 -649040853#1 -E3 -E2 -649064895 649064895 E2 E3"/>
    </vehicle>
    <vehicle id="veh149" depart="303.96" departLane="best" departPos="random" departSpeed="max">
        <route edges="258728090#4 -223632525#2 -223632520#0"/>
    </vehicle>
    <vehicle id="veh150" depart="306.00" departLane="best" departPos="random" departSpeed="max">
        <route edges="223632520#1 E1 -258728090#4"/>
    </vehicle>
    <vehicle id="veh151" depart="308.04" departLane="best" departPos="random" departSpeed="max">
        <route edges="-258728090#2 223632517 -E3 -223632520#2 649036317#3"/>
    </vehicle>
    <vehicle id="veh152" depart="310.08" departLane="best" departPos="random" departSpeed="max">
        <route edges="649064896#1 258728090#3 -E4 649064895 E2 -223632520#2"/>
    </vehicle>
    <vehicle id="veh153" depart="312.12" departLane="best" departPos="random" departSpeed="max">
        <route edges="-649036317#3 223632520#2 E3 -223632517 -258728090#0 671642282 223632526"/>
    </vehicle>
    <vehicle id="veh154" depart="314.16" departLane="best" departPos="random" departSpeed="max">
        <route edges="-E3 -223632520#2 E1"/>
    </vehicle>
    <vehicle id="veh155" depart="316.20" departLane="best" departPos="random" departSpeed="max">
        <route edges="E1"/>
    </vehicle>
    <vehicle id="veh156" depart="318.24" departLane="best" departPos="random" departSpeed="max">
        <route edges="-258728090#3 -649064896#1 649064895 E2 -223632520#2 E1 -258728090#4"/>
    </vehicle>
    <vehicle id="veh157" depart="320.28" departLane="best" departPos="random" departSpeed="max">
        <route edges="-223632526 -671642282 258728090#0 223632517 649040853#1 -223632522"/>
    </vehicle>
    <vehicle id="veh158" depart="322.32" departLane="best" departPos="random" departSpeed="max">
        <route edges="-671642282 258728090#0 258728090#1 -649064896#1 649064895 E2"/>
    </vehicle>
    <vehicle id="veh159" depart="324.36" departLane="best" departPos="random" departSpeed="max">
        <route edges="223632520#2 E3 -223632517 -258728090#0 671642282 223632526"/>
    </vehicle>
    <vehicle id="veh160" depart="326.40" departLane="best" departPos="random" departSpeed="max">
        <route edges="-671642282 258728090#0 258728090#1 -649064896#1 E4"/>
    </vehicle>
    <vehicle id="veh161" depart="328.44" departLane="best" departPos="random" departSpeed="max">
        <route edges="-223632526 -671642282 258728090#0 223632517 -E3 -223632520#2 -223632520#1 -223632525#0"/>
    </vehicle>
    <vehicle id="veh162" depart="330.48" departLane="best" departPos="random" departSpeed="max">
        <route edges="258728090#3 258728090#4 -223632525#2 223632520#1 E1 -258728090#4"/>
    </vehicle>
    <vehicle id="veh163" depart="332.52" departLane="best" departPos="random" departSpeed="max">
        <route edges="-258728090#2 223632517 649040853#1"/>
    </vehicle>
    <vehicle id="veh164" depart="334.56" departLane="best" departPos="random" departSpeed="max">