<?xml version="1.0" encoding="UTF-8"?>

<!-- generated on 2025-05-11 06:18:01.520326 by randomTrips.py v1_22_0+0002-63e50f52594
<configuration>
    <net-file value="E:/licenta/oras-mic/2025-05-08-13-35-40\osm.net.xml"/>
    <output-trip-file value="E:/licenta/oras-mic/2025-05-08-13-35-40\trips.trips.xml"/>
    <route-file value="E:/licenta/oras-mic/2025-05-08-13-35-40\generated_routes\routes_worker4_063d363a.rou.xml"/>
    <prefix value="veh"/>
    <trip-attributes value="departLane=&quot;best&quot; departSpeed=&quot;max&quot; departPos=&quot;random&quot;"/>
    <fringe-factor value="1.6"/>
    <seed value="99187"/>
    <end value="600.0"/>
    <period value="2.46"/>
</configuration>
-->

<!-- generated on 2025-05-11 06:18:01 by Eclipse SUMO duarouter Version 1.22.0
<duarouterConfiguration xmlns:xsi="http://www.w3.org/2001/XMLSchema-instance" xsi:noNamespaceSchemaLocation="http://sumo.dlr.de/xsd/duarouterConfiguration.xsd">

    <input>
        <net-file value="E:/licenta/oras-mic/2025-05-08-13-35-40\osm.net.xml"/>
        <route-files value="E:/licenta/oras-mic/2025-05-08-13-35-40\trips.trips.xml"/>
    </input>

    <output>
        <output-file value="E:/licenta/oras-mic/2025-05-08-13-35-40\generated_routes\routes_worker4_063d363a.rou.xml"/>
        <alternatives-output value="NUL"/>
    </output>

    <time>
        <begin value="0"/>
        <end value="600.0"/>
    </time>

    <report>
        <no-warnings value="true"/>
        <ignore-errors value="true"/>
        <no-step-log value="true"/>
    </report>

</duarouterConfiguration>
-->

<routes xmlns:xsi="http://www.w3.org/2001/XMLSchema-instance" xsi:noNamespaceSchemaLocation="http://sumo.dlr.de/xsd/routes_file.xsd">
    <vehicle id="veh0" depart="0.00" departLane="best" departPos="random" departSpeed="max">
        <route edges="-649064895 649064895 E2 E3 649040853#1 -223632522"/>
    </vehicle>
    <vehicle id="veh1" depart="2.33" departLane="best" departPos="random" departSpeed="max">
        <route edges="-649064895 649064895 E2 E3 -223632517 258728090#1"/>
    </vehicle>
    <vehicle id="veh5" depart="11.65" departLane="best" departPos="random" departSpeed="max">
        <route edges="-223632517 258728090#1 -649064896#1 649064896#1 -258728090#2 223632517 -E3"/>
    </vehicle>
    <vehicle id="veh6" depart="13.98" departLane="best" departPos="random" departSpeed="max">
        <route edges="E2"/>
    </vehicle>
    <vehicle id="veh7" depart="16.31" departLane="best" departPos="random" departSpeed="max">
        <route edges="E4 258728090#4 -223632525#2 -223632525#0"/>
    </vehicle>
    <vehicle id="veh8" depart="18.64" departLane="best" departPos="random" departSpeed="max">
        <route edges="258728090#4 -223632525#2 223632520#1 E1"/>
    </vehicle>
    <vehicle id="veh10" depart="23.30" departLane="best" departPos="random" departSpeed="max">
        <route edges="-E4 649064896#1"/>
    </vehicle>
    <vehicle id="veh11" depart="25.63" departLane="best" departPos="random" departSpeed="max">
        <route edges="223632520#2 -E2 -649064895 649064896#1 -258728090#2 223632517 -E3"/>
    </vehicle>
    <vehicle id="veh12" depart="27.96" departLane="best" departPos="random" departSpeed="max">
        <route edges="-223632525#2 223632520#1 223632520#2 E3 649040853#1 -223632522"/>
    </vehicle>
    <vehicle id="veh13" depart="30.29" departLane="best" departPos="random" departSpeed="max">
        <route edges="223632520#2 -E2 -649064895 649064896#1 -258728090#2 223632517"/>
    </vehicle>
    <vehicle id="veh14" depart="32.62" departLane="best" departPos="random" departSpeed="max">
        <route edges="-649040853#1 -E3 -E2 -649064895 E4 -258728090#3 -649064896#1"/>
    </vehicle>
    <vehicle id="veh15" depart="34.95" departLane="best" departPos="random" departSpeed="max">
        <route edges="223632525#0 223632525#1 -258728090#4 258728090#4"/>
    </vehicle>
    <vehicle id="veh16" depart="37.28" departLane="best" departPos="random" departSpeed="max">
        <route edges="223632520#0 223632525#1 -258728090#4 -E4 649064895"/>
    </vehicle>
    <vehicle id="veh17" depart="39.61" departLane="best" departPos="random" departSpeed="max">
        <route edges="-671642282 258728090#0 223632517 -E3 -223632520#2 -223632520#1 -223632525#0"/>
    </vehicle>
    <vehicle id="veh18" depart="41.94" departLane="best" departPos="random" departSpeed="max">
        <route edges="-671642282 258728090#0 223632517 -E3 -223632520#2 -223632520#1 223632525#1"/>
    </vehicle>
    <vehicle id="veh19" depart="44.27" departLane="best" departPos="random" departSpeed="max">
        <route edges="-223632526 -671642282 258728090#0 223632517 -E3 -223632520#2 -223632520#1"/>
    </vehicle>
    <vehicle id="veh20" depart="46.60" departLane="best" departPos="random" departSpeed="max">
        <route edges="-E3 -223632520#2 E1 -258728090#4"/>
    </vehicle>
    <vehicle id="veh22" depart="51.26" departLane="best" departPos="random" departSpeed="max">
        <route edges="-649036317#3 E1"/>
    </vehicle>
    <vehicle id="veh23" depart="53.59" departLane="best" departPos="random" departSpeed="max">
        <route edges="649064896#1 258728090#3 -E4 649064895 E2 E3"/>
    </vehicle>
    <vehicle id="veh24" depart="55.92" departLane="best" departPos="random" departSpeed="max">
        <route edges="223632525#0 223632520#1 223632520#2 E3 -223632517 -258728090#0 671642282"/>
    </vehicle>
    <vehicle id="veh25" depart="58.25" departLane="best" departPos="random" departSpeed="max">
        <route edges="-223632520#1 223632525#1 -258728090#4 -258728090#3 -258728090#2 -258728090#0 671642282 223632526"/>
    </vehicle>
    <vehicle id="veh26" depart="60.58" departLane="best" departPos="random" departSpeed="max">
        <route edges="223632522 -649040853#1 -E3 -E2 -649064895 649064896#1 -258728090#2 223632517"/>
    </vehicle>
    <vehicle id="veh27" depart="62.91" departLane="best" departPos="random" departSpeed="max">
        <route edges="258728090#1 258728090#3 258728090#4 -E1 -223632520#1"/>
    </vehicle>
    <vehicle id="veh28" depart="65.24" departLane="best" departPos="random" departSpeed="max">
        <route edges="-258728090#4 -258728090#3 -649064896#1"/>
    </vehicle>
    <vehicle id="veh29" depart="67.57" departLane="best" departPos="random" departSpeed="max">
        <route edges="-649036317#3 E1 -258728090#4 -258728090#3 -649064896#1"/>
    </vehicle>
    <vehicle id="veh30" depart="69.90" departLane="best" departPos="random" departSpeed="max">
        <route edges="-649040853#1 -E3 -223632520#2 649036317#3"/>
    </vehicle>
    <vehicle id="veh31" depart="72.23" departLane="best" departPos="random" departSpeed="max">
        <route edges="-258728090#2 -258728090#0 671642282 223632526"/>
    </vehicle>
    <vehicle id="veh32" depart="74.56" departLane="best" departPos="random" departSpeed="max">
        <route edges="223632520#0 223632525#1 -258728090#4 -E4 649064895"/>
    </vehicle>
    <vehicle id="veh33" depart="76.89" departLane="best" departPos="random" departSpeed="max">
        <route edges="-258728090#4 258728090#4 -223632525#2 -223632525#0"/>
    </vehicle>
    <vehicle id="veh34" depart="79.22" departLane="best" departPos="random" departSpeed="max">
        <route edges="-258728090#3 -649064896#1 E4 258728090#4 -223632525#2 -223632520#0"/>
    </vehicle>
    <vehicle id="veh35" depart="81.55" departLane="best" departPos="random" departSpeed="max">
        <route edges="-144943776 -649040853#1 -E3 -223632520#2 649036317#3"/>
    </vehicle>
    <vehicle id="veh36" depart="83.88" departLane="best" departPos="random" departSpeed="max">
        <route edges="-649036317#3 223632520#2 E3 -223632517"/>
    </vehicle>
    <vehicle id="veh37" depart="86.21" departLane="best" departPos="random" departSpeed="max">
        <route edges="649064895 E2 E3 -223632517"/>
    </vehicle>
    <vehicle id="veh38" depart="88.54" departLane="best" departPos="random" departSpeed="max">
        <route edges="E1 -258728090#4 -258728090#3 -258728090#2 223632517 -E3"/>
    </vehicle>
    <vehicle id="veh39" depart="90.87" departLane="best" departPos="random" departSpeed="max">
        <route edges="-649040853#1 -E3 -E2 -649064895 E4 -258728090#3"/>
    </vehicle>
    <vehicle id="veh40" depart="93.20" departLane="best" departPos="random" departSpeed="max">
        <route edges="-E2 -649064895 E4 258728090#4 -E1 -223632520#1 223632525#1"/>
    </vehicle>
    <vehicle id="veh41" depart="95.53" departLane="best" departPos="random" departSpeed="max">
        <route edges="223632522 649040853#2"/>
    </vehicle>
    <vehicle id="veh42" depart="97.86" departLane="best" departPos="random" departSpeed="max">
        <route edges="-649064895"/>
    </vehicle>
    <vehicle id="veh43" depart="100.19" departLane="best" departPos="random" departSpeed="max">
        <route edges="-649036317#3 223632520#2 E3 649040853#1 649040853#2"/>
    </vehicle>
    <vehicle id="veh44" depart="102.52" departLane="best" departPos="random" departSpeed="max">
        <route edges="649064896#1 258728090#3 258728090#4 -E1 -223632520#1 223632525#1"/>
    </vehicle>
    <vehicle id="veh45" depart="104.85" departLane="best" departPos="random" departSpeed="max">
        <route edges="-649036317#3 -223632520#1 -223632525#0"/>
    </vehicle>
    <vehicle id="veh46" depart="107.18" departLane="best" departPos="random" departSpeed="max">
        <route edges="223632517 -E3 -223632520#2 E1"/>
    </vehicle>
    <vehicle id="veh47" depart="109.51" departLane="best" departPos="random" departSpeed="max">
        <route edges="E4 -258728090#3 -258728090#2 -258728090#0"/>
    </vehicle>
    <vehicle id="veh48" depart="111.84" departLane="best" departPos="random" departSpeed="max">
        <route edges="-E4 649064896#1 -258728090#2 -258728090#0 671642282 223632526"/>
    </vehicle>
    <vehicle id="veh50" depart="116.50" departLane="best" departPos="random" departSpeed="max">
        <route edges="-144943776 -649040853#1 -E3 -E2 -649064895 649064896#1 258728090#3"/>
    </vehicle>
    <vehicle id="veh51" depart="118.83" departLane="best" departPos="random" departSpeed="max">
        <route edges="258728090#4 -E1 223632520#2 -E2 -649064895 649064895 E2"/>
    </vehicle>
    <vehicle id="veh52" depart="121.16" departLane="best" departPos="random" departSpeed="max">
        <route edges="-E2 -649064895 E4 258728090#4 -E1 -223632520#1 223632525#1"/>
    </vehicle>
    <vehicle id="veh53" depart="123.49" departLane="best" departPos="random" departSpeed="max">
        <route edges="223632525#0 223632525#1 -258728090#4 -E4 649064896#1 258728090#3"/>
    </vehicle>
    <vehicle id="veh54" depart="125.82" departLane="best" departPos="random" departSpeed="max">
        <route edges="223632522 -649040853#1 -E3 -223632520#2 E1 -258728090#4"/>
    </vehicle>
    <vehicle id="veh55" depart="128.15" departLane="best" departPos="random" departSpeed="max">
        <route edges="223632520#1 223632520#2 E3 -223632517"/>
    </vehicle>
    <vehicle id="veh56" depart="130.48" departLane="best" departPos="random" departSpeed="max">
        <route edges="-649064896#1 649064895 E2 -223632520#2 -223632520#1"/>
    </vehicle>
    <vehicle id="veh57" depart="132.81" departLane="best" departPos="random" departSpeed="max">
        <route edges="223632517 -E3 -223632520#2 649036317#3"/>
    </vehicle>
    <vehicle id="veh58" depart="135.14" departLane="best" departPos="random" departSpeed="max">
        <route edges="671642282"/>
    </vehicle>
    <vehicle id="veh59" depart="137.47" departLane="best" departPos="random" departSpeed="max">
        <route edges="223632525#0 223632520#1 E1 -223632525#2 -223632525#0"/>
    </vehicle>
    <vehicle id="veh60" depart="139.80" departLane="best" departPos="random" departSpeed="max">
        <route edges="-649036317#3 223632520#2 E3 649040853#1 649040853#2"/>
    </vehicle>
    <vehicle id="veh61" depart="142.13" departLane="best" departPos="random" departSpeed="max">
        <route edges="223632525#1 -258728090#4 -258728090#3"/>
    </vehicle>
    <vehicle id="veh62" depart="144.46" departLane="best" departPos="random" departSpeed="max">
        <route edges="-E1 223632520#2 -E2 -649064895 649064896#1"/>
    </vehicle>
    <vehicle id="veh63" depart="146.79" departLane="best" departPos="random" departSpeed="max">
        <route edges="223632522 -649040853#1 -E3 -E2 -649064895 649064895 E2 E3 649040853#1 -223632522"/>
    </vehicle>
    <vehicle id="veh66" depart="153.78" departLane="best" departPos="random" departSpeed="max">
        <route edges="-258728090#3 -649064896#1 649064895 E2 -223632520#2 E1"/>
    </vehicle>
    <vehicle id="veh68" depart="158.44" departLane="best" departPos="random" departSpeed="max">
        <route edges="-223632526 -671642282 258728090#0 258728090#1 -649064896#1"/>
    </vehicle>
    <vehicle id="veh69" depart="160.77" departLane="best" departPos="random" departSpeed="max">
        <route edges="-144943776 -649040853#1 -E3 -E2 -649064895 E4 258728090#4 -223632525#2 223632520#1"/>
    </vehicle>
    <vehicle id="veh70" depart="163.10" departLane="best" departPos="random" departSpeed="max">
        <route edges="223632522 -649040853#1 -E3 -E2 -649064895 E4 258728090#4"/>
    </vehicle>
    <vehicle id="veh71" depart="165.43" departLane="best" departPos="random" departSpeed="max">
        <route edges="-258728090#2"/>
    </vehicle>
    <vehicle id="veh72" depart="167.76" departLane="best" departPos="random" departSpeed="max">
        <route edges="-649064895 649064895 E2 E3"/>
    </vehicle>
    <vehicle id="veh73" depart="170.09" departLane="best" departPos="random" departSpeed="max">
        <route edges="258728090#4 -E1 223632520#2"/>
    </vehicle>
    <vehicle id="veh74" depart="172.42" departLane="best" departPos="random" departSpeed="max">
        <route edges="223632520#2 -E2 -649064895"/>
    </vehicle>
    <vehicle id="veh75" depart="174.75" departLane="best" departPos="random" departSpeed="max">
        <route edges="223632517 649040853#1"/>
    </vehicle>
    <vehicle id="veh76" depart="177.08" departLane="best" departPos="random" departSpeed="max">
        <route edges="-223632526 -671642282 258728090#0 223632517 -E3 -223632520#2 E1 -258728090#4"/>
    </vehicle>
    <vehicle id="veh77" depart="179.41" departLane="best" departPos="random" departSpeed="max">
        <route edges="258728090#4 -E1 223632520#2 E3 -223632517"/>
    </vehicle>
    <vehicle id="veh78" depart="181.74" departLane="best" departPos="random" departSpeed="max">
        <route edges="258728090#4 -223632525#2 223632520#1 E1 -258728090#4 -E4"/>
    </vehicle>
    <vehicle id="veh79" depart="184.07" departLane="best" departPos="random" departSpeed="max">
        <route edges="-223632526 -671642282 258728090#0 258728090#1 258728090#3 258728090#4 -E1"/>
    </vehicle>
    <vehicle id="veh80" depart="186.40" departLane="best" departPos="random" departSpeed="max">
        <route edges="-E4 649064896#1 258728090#3 258728090#4 -223632525#2"/>
    </vehicle>
    <vehicle id="veh81" depart="188.73" departLane="best" departPos="random" departSpeed="max">
        <route edges="-223632526 -671642282 258728090#0 223632517 649040853#1 -223632522"/>
    </vehicle>
    <vehicle id="veh82" depart="191.06" departLane="best" departPos="random" departSpeed="max">
        <route edges="-E4 649064896#1 -258728090#2 -258728090#0 671642282 223632526"/>
    </vehicle>
    <vehicle id="veh83" depart="193.39" departLane="best" departPos="random" departSpeed="max">
        <route edges="-258728090#3 -649064896#1 649064895 E2 -223632520#2 649036317#3"/>
    </vehicle>
    <vehicle id="veh84" depart="195.72" departLane="best" departPos="random" departSpeed="max">
        <route edges="-144943776 -649040853#1 -E3 -E2 -649064895 E4 -258728090#3"/>
    </vehicle>
    <vehicle id="veh85" depart="198.05" departLane="best" departPos="random" departSpeed="max">
        <route edges="223632522 -649040853#1 -E3 -E2"/>
    </vehicle>
    <vehicle id="veh86" depart="200.38" departLane="best" departPos="random" departSpeed="max">
        <route edges="-223632520#1 223632525#1 -258728090#4 -E4 649064895 E2 -223632520#2"/>
    </vehicle>
    <vehicle id="veh87" depart="202.71" departLane="best" departPos="random" departSpeed="max">
        <route edges="E3 649040853#1"/>
    </vehicle>
    <vehicle id="veh90" depart="209.70" departLane="best" departPos="random" departSpeed="max">
        <route edges="-E1 -223632520#1 223632525#1"/>
    </vehicle>
    <vehicle id="veh91" depart="212.03" departLane="best" departPos="random" departSpeed="max">
        <route edges="223632522 -649040853#1 -E3 -E2 -649064895 649064895 E2"/>
    </vehicle>
    <vehicle id="veh92" depart="214.36" departLane="best" departPos="random" departSpeed="max">
        <route edges="649064896#1 -258728090#2 -258728090#0 671642282"/>
    </vehicle>
    <vehicle id="veh93" depart="216.69" departLane="best" departPos="random" departSpeed="max">
        <route edges="258728090#4 -E1 -223632520#1 223632525#1"/>
    </vehicle>
    <vehicle id="veh94" depart="219.02" departLane="best" departPos="random" departSpeed="max">
        <route edges="223632525#0 223632525#1 -E1 -223632520#1"/>
    </vehicle>
    <vehicle id="veh95" depart="221.35" departLane="best" departPos="random" departSpeed="max">
        <route edges="-E4 649064895 E2 -223632520#2 -223632520#1 223632525#1"/>
    </vehicle>
    <vehicle id="veh101" depart="235.33" departLane="best" departPos="random" departSpeed="max">
        <route edges="223632525#1 -258728090#4 -E4 649064895 E2 E3 649040853#1 -223632522"/>
    </vehicle>
    <vehicle id="veh102" depart="237.66" departLane="best" departPos="random" departSpeed="max">
        <route edges="258728090#3 -E4 649064895 E2 E3 649040853#1 -223632522"/>
    </vehicle>
    <vehicle id="veh103" depart="239.99" departLane="best" departPos="random" departSpeed="max">
        <route edges="-223632517 258728090#1 -649064896#1 649064895 E2 -223632520#2 E1 -258728090#4"/>
    </vehicle>
    <vehicle id="veh104" depart="242.32" departLane="best" departPos="random" departSpeed="max">
        <route edges="-258728090#2 223632517"/>
    </vehicle>
    <vehicle id="veh105" depart="244.65" departLane="best" departPos="random" departSpeed="max">
        <route edges="-E4 649064895 -649064895 E4 -258728090#3 -649064896#1"/>
    </vehicle>
    <vehicle id="veh107" depart="249.31" departLane="best" departPos="random" departSpeed="max">
        <route edges="-223632525#2 223632520#1 223632520#2 -E2 -649064895"/>
    </vehicle>
    <vehicle id="veh108" depart="251.64" departLane="best" departPos="random" departSpeed="max">
        <route edges="-E3 -E2 -649064895 649064895"/>
    </vehicle>
    <vehicle id="veh109" depart="253.97" departLane="best" departPos="random" departSpeed="max">
        <route edges="E1 -258728090#4 -E4 649064895 E2 -223632520#2"/>
    </vehicle>
    <vehicle id="veh110" depart="256.30" departLane="best" departPos="random" departSpeed="max">
        <route edges="-E3 -E2 -649064895"/>
    </vehicle>
    <vehicle id="veh111" depart="258.63" departLane="best" departPos="random" departSpeed="max">
        <route edges="-671642282 258728090#0 223632517"/>
    </vehicle>
    <vehicle id="veh112" depart="260.96" departLane="best" departPos="random" departSpeed="max">
        <route edges="-649036317#3 -223632520#1 223632525#1"/>
    </vehicle>
    <vehicle id="veh113" depart="263.29" departLane="best" departPos="random" departSpeed="max">
        <route edges="223632522 -649040853#1 -E3 -223632520#2 -223632520#1 -223632520#0"/>
    </vehicle>
    <vehicle id="veh114" depart="265.62" departLane="best" departPos="random" departSpeed="max">
        <route edges="-223632525#2 223632520#1 649036317#3"/>
    </vehicle>
    <vehicle id="veh115" depart="267.95" departLane="best" departPos="random" departSpeed="max">
        <route edges="-223632517 258728090#1"/>
    </vehicle>
    <vehicle id="veh117" depart="272.61" departLane="best" departPos="random" departSpeed="max">
        <route edges="223632520#2 -E2 -649064895 E4 258728090#4 -223632525#2 -223632520#0"/>
    </vehicle>
    <vehicle id="veh118" depart="274.94" departLane="best" departPos="random" departSpeed="max">
        <route edges="E3"/>
    </vehicle>
    <vehicle id="veh119" depart="277.27" departLane="best" departPos="random" departSpeed="max">
        <route edges="-649036317#3 223632520#2 -E2"/>
    </vehicle>
    <vehicle id="veh120" depart="279.60" departLane="best" departPos="random" departSpeed="max">
        <route edges="258728090#4 -223632525#2 223632520#1 E1 -258728090#4 -E4"/>
    </vehicle>
    <vehicle id="veh121" depart="281.93" departLane="best" departPos="random" departSpeed="max">
        <route edges="-144943776 -649040853#1 -223632517 -258728090#0 671642282 223632526"/>
    </vehicle>
    <vehicle id="veh123" depart="286.59" departLane="best" departPos="random" departSpeed="max">
        <route edges="-E2 -649064895 649064896#1 -258728090#2"/>
    </vehicle>
    <vehicle id="veh124" depart="288.92" departLane="best" departPos="random" departSpeed="max">
        <route edges="-E1 223632520#2 E3 -223632517 -258728090#0 671642282"/>
    </vehicle>
    <vehicle id="veh125" depart="291.25" departLane="best" departPos="random" departSpeed="max">
        <route edges="-258728090#3 -649064896#1 649064895 E2 E3 649040853#1 649040853#2"/>
    </vehicle>
    <vehicle id="veh126" depart="293.58" departLane="best" departPos="random" departSpeed="max">
        <route edges="258728090#0 223632517 -E3 -223632520#2"/>
    </vehicle>
    <vehicle id="veh127" depart="295.91" departLane="best" departPos="random" departSpeed="max">
        <route edges="649064895 -649064895 649064896#1 -258728090#2 223632517 -E3"/>
    </vehicle>
    <vehicle id="veh128" depart="298.24" departLane="best" departPos="random" departSpeed="max">
        <route edges="-223632526 -671642282 258728090#0 258728090#1 258728090#3 258728090#4 -223632525#2 223632520#1"/>
    </vehicle>
    <vehicle id="veh129" depart="300.57" departLane="best" departPos="random" departSpeed="max">
        <route edges="-649036317#3 E1 -258728090#4 -258728090#3 -258728090#2 223632517 -E3"/>
    </vehicle>
    <vehicle id="veh130" depart="302.90" departLane="best" departPos="random" departSpeed="max">
        <route edges="-258728090#3 -649064896#1 649064895 E2"/>
    </vehicle>
    <vehicle id="veh131" depart="305.23" departLane="best" departPos="random" departSpeed="max">
        <route edges="-E4 649064895 E2 E3"/>
    </vehicle>
    <vehicle id="veh132" depart="307.56" departLane="best" departPos="random" departSpeed="max">
        <route edges="-649064896#1 649064895 E2 E3 649040853#1 649040853#2"/>
    </vehicle>
    <vehicle id="veh133" depart="309.89" departLane="best" departPos="random" departSpeed="max">
        <route edges="258728090#1 -649064896#1 649064896#1 -258728090#2"/>
    </vehicle>
    <vehicle id="veh134" depart="312.22" departLane="best" departPos="random" departSpeed="max">
        <route edges="-649036317#3 E1 -258728090#4 -258728090#3"/>
    </vehicle>
    <vehicle id="veh135" depart="314.55" departLane="best" departPos="random" departSpeed="max">
        <route edges="-E4 649064896#1 -258728090#2 -258728090#0 671642282 223632526"/>
    </vehicle>
    <vehicle id="veh136" depart="316.88" departLane="best" departPos="random" departSpeed="max">
        <route edges="258728090#3 -E4 649064895"/>
    </vehicle>
    <vehicle id="veh138" depart="321.54" departLane="best" departPos="random" departSpeed="max">
        <route edges="-144943776 -649040853#1 -E3 -E2 -649064895 649064895"/>
    </vehicle>
    <vehicle id="veh139" depart="323.87" departLane="best" departPos="random" departSpeed="max">
        <route edges="-144943776 -649040853#1 -E3"/>
    </vehicle>
    <vehicle id="veh140" depart="326.20" departLane="best" departPos="random" departSpeed="max">
        <route edges="-144943776 -649040853#1 -E3 -E2 -649064895 E4"/>
    </vehicle>
    <vehicle id="veh141" depart="328.53" departLane="best" departPos="random" departSpeed="max">
        <route edges="-E2 -649064895 649064895 E2 -223632520#2 E1"/>
    </vehicle>
    <vehicle id="veh142" depart="330.86" departLane="best" departPos="random" departSpeed="max">
        <route edges="-649040853#1 -223632517 -258728090#0"/>
    </vehicle>
    <vehicle id="veh143" depart="333.19" departLane="best" departPos="random" departSpeed="max">
        <route edges="-223632525#2 223632520#1 223632520#2 E3 649040853#1 649040853#2"/>
    </vehicle>
    <vehicle id="veh144" depart="335.52" departLane="best" departPos="random" departSpeed="max">
        <route edges="E4 -258728090#3 -649064896#1 649064896#1"/>
    </vehicle>
    <vehicle id="veh145" depart="337.85" departLane="best" departPos="random" departSpeed="max">
        <route edges="223632525#0 223632520#1 223632520#2 -E2 -649064895"/>
    </vehicle>
    <vehicle id="veh146" depart="340.18" departLane="best" departPos="random" departSpeed="max">
        <route edges="223632520#0 223632525#1 -E1"/>
    </vehicle>
    <vehicle id="veh147" depart="342.51" departLane="best" departPos="random" departSpeed="max">
        <route edges="-258728090#2 223632517 -E3"/>
    </vehicle>
    <vehicle id="veh148" depart="344.84" departLane="best" departPos="random" departSpeed="max">
        <route edges="-223632526 -671642282 258728090#0 223632517 -E3 -223632520#2 -223632520#1"/>
    </vehicle>
    <vehicle id="veh150" depart="349.50" departLane="best" departPos="random" departSpeed="max">
        <route edges="E4 258728090#4 -E1 223632520#2 E3 649040853#1 649040853#2"/>
    </vehicle>
    <vehicle id="veh151" depart="351.83" departLane="best" departPos="random" departSpeed="max">
        <route edges="223632520#2 E3 -223632517 -258728090#0 671642282 223632526"/>
    </vehicle>
    <vehicle id="veh152" depart="354.16" departLane="best" departPos="random" departSpeed="max">
        <route edges="-649064895 E4"/>
    </vehicle>
    <vehicle id="veh153" depart="356.49" departLane="best" departPos="random" departSpeed="max">
        <route edges="E2 -223632520#2 E1 -258728090#4 -E4 649064895 -649064895"/>
    </vehicle>
    <vehicle id="veh154" depart="358.82" departLane="best" departPos="random" departSpeed="max">
        <route edges="-258728090#0"/>
    </vehicle>
    <vehicle id="veh155" depart="361.15" departLane="best" departPos="random" departSpeed="max">
        <route edges="-E4 649064896#1 -258728090#2 -258728090#0 671642282"/>
    </vehicle>
    <vehicle id="veh156" depart="363.48" departLane="best" departPos="random" departSpeed="max">
        <route edges="-649036317#3 E1 -258728090#4 -E4 649064895 E2"/>
    </vehicle>
    <vehicle id="veh157" depart="365.81" departLane="best" departPos="random" departSpeed="max">
        <route edges="649064895 -649064895 649064896#1"/>
    </vehicle>
    <vehicle id="veh158" depart="368.14" departLane="best" departPos="random" departSpeed="max">
        <route edges="-E2 -649064895 649064895"/>
    </vehicle>
    <vehicle id="veh159" depart="370.47" departLane="best" departPos="random" departSpeed="max">
        <route edges="-E3 -E2 -649064895 E4 258728090#4 -E1"/>
    </vehicle>
    <vehicle id="veh160" depart="372.80" departLane="best" departPos="random" departSpeed="max">
        <route edges="-649064895 E4 258728090#4 -E1 -223632520#1"/>
    </vehicle>
    <vehicle id="veh161" depart="375.13" departLane="best" departPos="random" departSpeed="max">
        <route edges="-E2 -649064895 649064895 E2 E3 -223632517 258728090#1"/>
    </vehicle>
    <vehicle id="veh162" depart="377.46" departLane="best" departPos="random" departSpeed="max">
        <route edges="-E3 -E2 -649064895 649064896#1"/>
    </vehicle>
    <vehicle id="veh163" depart="379.79" departLane="best" departPos="random" departSpeed="max">
        <route edges="-258728090#3 -649064896#1 E4 258728090#4"/>
    </vehicle>
    <vehicle id="veh164" depart="382.12" departLane="best" departPos="random" departSpeed="max">
        <route edges="258728090#4 -E1 223632520#2 E3 649040853#1"/>
    </vehicle>
    <vehicle id="veh166" depart="386.78" departLane="best" departPos="random" departSpeed="max">
        <route edges="E2"/>
    </vehicle>
    <vehicle id="veh167" depart="389.11" departLane="best" departPos="random" departSpeed="max">
        <route edges="649064895 -649064895 649064896#1 -258728090#2 223632517"/>
    </vehicle>
    <vehicle id="veh168" depart="391.44" departLane="best" departPos="random" departSpeed="max">
        <route edges="258728090#0 223632517 649040853#1 -223632522"/>
    </vehicle>
    <vehicle id="veh169" depart="393.77" departLane="best" departPos="random" departSpeed="max">
        <route edges="E3 -223632517 258728090#1 258728090#3 258728090#4 -E1 -223632520#1"/>
    </vehicle>
    <vehicle id="veh170" depart="396.10" departLane="best" departPos="random" departSpeed="max">
        <route edges="-223632526 -671642282 258728090#0 258728090#1 -649064896#1 E4 -258728090#3"/>
    </vehicle>
    <vehicle id="veh171" depart="398.43" departLane="best" departPos="random" departSpeed="max">
        <route edges="223632520#2 E3 -223632517"/>
    </vehicle>
    <vehicle id="veh172" depart="400.76" departLane="best" departPos="random" departSpeed="max">
        <route edges="223632520#0 223632520#1 223632520#2 E3 -223632517 258728090#1"/>
    </vehicle>
    <vehicle id="veh173" depart="403.09" departLane="best" departPos="random" departSpeed="max">
        <route edges="-E2 -649064895 E4 258728090#4 -E1 223632520#2"/>
    </vehicle>
    <vehicle id="veh174" depart="405.42" departLane="best" departPos="random" departSpeed="max">
        <route edges="-649040853#1 -E3 -E2 -649064895 E4 -258728090#3 -649064896#1"/>
    </vehicle>
    <vehicle id="veh175" depart="407.75" departLane="best" departPos="random" departSpeed="max">