<?xml version="1.0" encoding="UTF-8"?>

<!-- generated on 2025-05-11 06:21:16.642237 by randomTrips.py v1_22_0+0002-63e50f52594
<configuration>
    <net-file value="E:/licenta/oras-mic/2025-05-08-13-35-40\osm.net.xml"/>
    <output-trip-file value="E:/licenta/oras-mic/2025-05-08-13-35-40\trips.trips.xml"/>
    <route-file value="E:/licenta/oras-mic/2025-05-08-13-35-40\generated_routes\routes_worker3_f1285deb.rou.xml"/>
    <prefix value="veh"/>
    <trip-attributes value="departLane=&quot;best&quot; departSpeed=&quot;max&quot; departPos=&quot;random&quot;"/>
    <fringe-factor value="1.5"/>
    <seed value="63709"/>
    <end value="600.0"/>
    <period value="1.62"/>
</configuration>
-->

<!-- generated on 2025-05-11 06:21:16 by Eclipse SUMO duarouter Version 1.22.0
<duarouterConfiguration xmlns:xsi="http://www.w3.org/2001/XMLSchema-instance" xsi:noNamespaceSchemaLocation="http://sumo.dlr.de/xsd/duarouterConfiguration.xsd">

    <input>
        <net-file value="E:/licenta/oras-mic/2025-05-08-13-35-40\osm.net.xml"/>
        <route-files value="E:/licenta/oras-mic/2025-05-08-13-35-40\trips.trips.xml"/>
    </input>

    <output>
        <output-file value="E:/licenta/oras-mic/2025-05-08-13-35-40\generated_routes\routes_worker3_f1285deb.rou.xml"/>
        <alternatives-output value="NUL"/>
    </output>

    <time>
        <begin value="0"/>
        <end value="600.0"/>
    </time>

    <report>
        <no-warnings value="true"/>
        <ignore-errors value="true"/>
        <no-step-log value="true"/>
    </report>

</duarouterConfiguration>
-->

<routes xmlns:xsi="http://www.w3.org/2001/XMLSchema-instance" xsi:noNamespaceSchemaLocation="http://sumo.dlr.de/xsd/routes_file.xsd">
    <vehicle id="veh1" depart="2.26" departLane="best" departPos="random" departSpeed="max">
        <route edges="-223632525#2 223632520#1 223632520#2"/>
    </vehicle>
    <vehicle id="veh2" depart="4.52" departLane="best" departPos="random" departSpeed="max">
        <route edges="E3 -223632517 258728090#1 258728090#3 258728090#4 -E1 649036317#3"/>
    </vehicle>
    <vehicle id="veh3" depart="6.78" departLane="best" departPos="random" departSpeed="max">
        <route edges="223632525#1 -258728090#4 -E4 649064895 E2 E3"/>
    </vehicle>
    <vehicle id="veh4" depart="9.04" departLane="best" departPos="random" departSpeed="max">
        <route edges="-649064896#1 649064896#1 258728090#3 -E4"/>
    </vehicle>
    <vehicle id="veh5" depart="11.30" departLane="best" departPos="random" departSpeed="max">
        <route edges="-223632517 -258728090#0 671642282 223632526"/>
    </vehicle>
    <vehicle id="veh7" depart="15.82" departLane="best" departPos="random" departSpeed="max">
        <route edges="E2 E3 -223632517 258728090#1 -649064896#1"/>
    </vehicle>
    <vehicle id="veh8" depart="18.08" departLane="best" departPos="random" departSpeed="max">
        <route edges="-258728090#2 223632517 -E3 -223632520#2 -223632520#1"/>
    </vehicle>
    <vehicle id="veh9" depart="20.34" departLane="best" departPos="random" departSpeed="max">
        <route edges="258728090#3"/>
    </vehicle>
    <vehicle id="veh10" depart="22.60" departLane="best" departPos="random" departSpeed="max">
        <route edges="-E3 -E2 -649064895 649064895 E2 E3"/>
    </vehicle>
    <vehicle id="veh11" depart="24.86" departLane="best" departPos="random" departSpeed="max">
        <route edges="-223632526 -671642282 258728090#0 258728090#1 -649064896#1 E4 -258728090#3"/>
    </vehicle>
    <vehicle id="veh12" depart="27.12" departLane="best" departPos="random" departSpeed="max">
        <route edges="-671642282 258728090#0 258728090#1 -649064896#1 649064896#1 -258728090#2"/>
    </vehicle>
    <vehicle id="veh13" depart="29.38" departLane="best" departPos="random" departSpeed="max">
        <route edges="-223632525#2 -223632520#0"/>
    </vehicle>
    <vehicle id="veh15" depart="33.90" departLane="best" departPos="random" departSpeed="max">
        <route edges="223632522 -649040853#1 -E3 -E2 -649064895"/>
    </vehicle>
    <vehicle id="veh16" depart="36.16" departLane="best" departPos="random" departSpeed="max">
        <route edges="258728090#0 223632517 -E3 -223632520#2 -223632520#1 -223632525#0"/>
    </vehicle>
    <vehicle id="veh17" depart="38.42" departLane="best" departPos="random" departSpeed="max">
        <route edges="223632520#2 -E2 -649064895 E4 258728090#4 -223632525#2 -223632525#0"/>
    </vehicle>
    <vehicle id="veh18" depart="40.68" departLane="best" departPos="random" departSpeed="max">
        <route edges="223632525#1 -E1 223632520#2"/>
    </vehicle>
    <vehicle id="veh19" depart="42.94" departLane="best" departPos="random" departSpeed="max">
        <route edges="-258728090#3 -649064896#1 649064895 E2 E3 649040853#1 649040853#2"/>
    </vehicle>
    <vehicle id="veh20" depart="45.20" departLane="best" departPos="random" departSpeed="max">
        <route edges="-223632525#2 223632520#1 E1 -258728090#4 -258728090#3"/>
    </vehicle>
    <vehicle id="veh21" depart="47.46" departLane="best" departPos="random" departSpeed="max">
        <route edges="223632520#2 -E2 -649064895 E4 258728090#4 -E1 -223632520#1"/>
    </vehicle>
    <vehicle id="veh23" depart="51.98" departLane="best" departPos="random" departSpeed="max">
        <route edges="223632520#2 -E2 -649064895 649064896#1 -258728090#2 223632517 -E3"/>
    </vehicle>
    <vehicle id="veh24" depart="54.24" departLane="best" departPos="random" departSpeed="max">
        <route edges="E3 -223632517 258728090#1 258728090#3 258728090#4 -E1 -223632520#1 223632525#1"/>
    </vehicle>
    <vehicle id="veh25" depart="56.50" departLane="best" departPos="random" departSpeed="max">
        <route edges="-223632517 258728090#1 -649064896#1 649064895 E2 -223632520#2 E1 -258728090#4"/>
    </vehicle>
    <vehicle id="veh26" depart="58.76" departLane="best" departPos="random" departSpeed="max">
        <route edges="-223632520#2 E1 -223632525#2 223632520#1 223632520#2 -E2"/>
    </vehicle>
    <vehicle id="veh27" depart="61.02" departLane="best" departPos="random" departSpeed="max">
        <route edges="223632517 -E3 -E2 -649064895 649064896#1 -258728090#2 -258728090#0 671642282 223632526"/>
    </vehicle>
    <vehicle id="veh29" depart="65.54" departLane="best" departPos="random" departSpeed="max">
        <route edges="-E2 -649064895 649064896#1 -258728090#2 223632517 -E3"/>
    </vehicle>
    <vehicle id="veh31" depart="70.06" departLane="best" departPos="random" departSpeed="max">
        <route edges="649064896#1 -258728090#2 -258728090#0 671642282 223632526"/>
    </vehicle>
    <vehicle id="veh32" depart="72.32" departLane="best" departPos="random" departSpeed="max">
        <route edges="-E2 -649064895 649064896#1 -258728090#2 -258728090#0 671642282"/>
    </vehicle>
    <vehicle id="veh33" depart="74.58" departLane="best" departPos="random" departSpeed="max">
        <route edges="-223632526 -671642282"/>
    </vehicle>
    <vehicle id="veh34" depart="76.84" departLane="best" departPos="random" departSpeed="max">
        <route edges="223632520#2 -E2 -649064895 E4"/>
    </vehicle>
    <vehicle id="veh35" depart="79.10" departLane="best" departPos="random" departSpeed="max">
        <route edges="223632517 -E3 -223632520#2"/>
    </vehicle>
    <vehicle id="veh37" depart="83.62" departLane="best" departPos="random" departSpeed="max">
        <route edges="-258728090#3 -258728090#2 -258728090#0 671642282"/>
    </vehicle>
    <vehicle id="veh38" depart="85.88" departLane="best" departPos="random" departSpeed="max">
        <route edges="-649064896#1 E4 258728090#4 -E1 223632520#2"/>
    </vehicle>
    <vehicle id="veh39" depart="88.14" departLane="best" departPos="random" departSpeed="max">
        <route edges="-258728090#2 223632517 -E3 -E2 -649064895 649064895 E2 E3 -223632517"/>
    </vehicle>
    <vehicle id="veh40" depart="90.40" departLane="best" departPos="random" departSpeed="max">
        <route edges="-649064896#1"/>
    </vehicle>
    <vehicle id="veh41" depart="92.66" departLane="best" departPos="random" departSpeed="max">
        <route edges="-649064895 649064895 E2"/>
    </vehicle>
    <vehicle id="veh42" depart="94.92" departLane="best" departPos="random" departSpeed="max">
        <route edges="-223632525#2 -223632520#0"/>
    </vehicle>
    <vehicle id="veh44" depart="99.44" departLane="best" departPos="random" departSpeed="max">
        <route edges="-258728090#2 223632517 -E3"/>
    </vehicle>
    <vehicle id="veh45" depart="101.70" departLane="best" departPos="random" departSpeed="max">
        <route edges="-223632520#1 223632525#1 -E1 649036317#3"/>
    </vehicle>
    <vehicle id="veh46" depart="103.96" departLane="best" departPos="random" departSpeed="max">
        <route edges="-649036317#3 E1 -258728090#4"/>
    </vehicle>
    <vehicle id="veh47" depart="106.22" departLane="best" departPos="random" departSpeed="max">
        <route edges="-223632525#2 223632520#1 223632520#2 -E2 -649064895 649064896#1 258728090#3"/>
    </vehicle>
    <vehicle id="veh48" depart="108.48" departLane="best" departPos="random" departSpeed="max">
        <route edges="-223632526 -671642282 258728090#0 223632517 -E3 -223632520#2 -223632520#1 -223632520#0"/>
    </vehicle>
    <vehicle id="veh49" depart="110.74" departLane="best" departPos="random" departSpeed="max">
        <route edges="223632517 649040853#1 -223632522"/>
    </vehicle>
    <vehicle id="veh50" depart="113.00" departLane="best" departPos="random" departSpeed="max">
        <route edges="-223632526 -671642282 258728090#0 223632517 -E3 -223632520#2 649036317#3"/>
    </vehicle>
    <vehicle id="veh51" depart="115.26" departLane="best" departPos="random" departSpeed="max">
        <route edges="E1 -223632525#2 223632520#1 223632520#2 -E2"/>
    </vehicle>
    <vehicle id="veh52" depart="117.52" departLane="best" departPos="random" departSpeed="max">
        <route edges="-258728090#4 -E4 649064895 -649064895"/>
    </vehicle>
    <vehicle id="veh53" depart="119.78" departLane="best" departPos="random" departSpeed="max">
        <route edges="258728090#4 -E1 649036317#3"/>
    </vehicle>
    <vehicle id="veh55" depart="124.30" departLane="best" departPos="random" departSpeed="max">
        <route edges="-258728090#2 223632517"/>
    </vehicle>
    <vehicle id="veh56" depart="126.56" departLane="best" departPos="random" departSpeed="max">
        <route edges="E2 E3 649040853#1 -223632522"/>
    </vehicle>
    <vehicle id="veh57" depart="128.82" departLane="best" departPos="random" departSpeed="max">
        <route edges="649064895 -649064895 649064896#1 258728090#3"/>
    </vehicle>
    <vehicle id="veh58" depart="131.08" departLane="best" departPos="random" departSpeed="max">
        <route edges="223632520#2 -E2 -649064895 E4 258728090#4 -E1"/>
    </vehicle>
    <vehicle id="veh59" depart="133.34" departLane="best" departPos="random" departSpeed="max">
        <route edges="E4 258728090#4 -E1 223632520#2 E3 -223632517"/>
    </vehicle>
    <vehicle id="veh60" depart="135.60" departLane="best" departPos="random" departSpeed="max">
        <route edges="E1 -258728090#4 -E4 649064895"/>
    </vehicle>
    <vehicle id="veh62" depart="140.12" departLane="best" departPos="random" departSpeed="max">
        <route edges="223632525#1 -258728090#4 258728090#4"/>
    </vehicle>
    <vehicle id="veh63" depart="142.38" departLane="best" departPos="random" departSpeed="max">
        <route edges="-671642282 258728090#0 258728090#1 -649064896#1 649064896#1 -258728090#2 -258728090#0"/>
    </vehicle>
    <vehicle id="veh64" depart="144.64" departLane="best" departPos="random" departSpeed="max">
        <route edges="-649064896#1 649064896#1 -258728090#2 223632517"/>
    </vehicle>
    <vehicle id="veh65" depart="146.90" departLane="best" departPos="random" departSpeed="max">
        <route edges="649064895 -649064895 E4 258728090#4 -223632525#2"/>
    </vehicle>
    <vehicle id="veh66" depart="149.16" departLane="best" departPos="random" departSpeed="max">
        <route edges="-223632520#2 E1 -223632525#2 223632520#1 223632520#2 -E2"/>
    </vehicle>
    <vehicle id="veh67" depart="151.42" departLane="best" departPos="random" departSpeed="max">
        <route edges="258728090#4 -E1 -223632520#1 223632525#1"/>
    </vehicle>
    <vehicle id="veh68" depart="153.68" departLane="best" departPos="random" departSpeed="max">
        <route edges="223632525#0 223632520#1 E1 -223632525#2 -223632525#0"/>
    </vehicle>
    <vehicle id="veh69" depart="155.94" departLane="best" departPos="random" departSpeed="max">
        <route edges="223632520#2 -E2 -649064895 649064896#1"/>
    </vehicle>
    <vehicle id="veh70" depart="158.20" departLane="best" departPos="random" departSpeed="max">
        <route edges="-223632517 -258728090#0"/>
    </vehicle>
    <vehicle id="veh71" depart="160.46" departLane="best" departPos="random" departSpeed="max">
        <route edges="E3 -223632517 258728090#1 258728090#3 258728090#4 -E1 223632520#2"/>
    </vehicle>
    <vehicle id="veh72" depart="162.72" departLane="best" departPos="random" departSpeed="max">
        <route edges="223632525#1 -E1"/>
    </vehicle>
    <vehicle id="veh74" depart="167.24" departLane="best" departPos="random" departSpeed="max">
        <route edges="649064896#1 258728090#3 -E4"/>
    </vehicle>
    <vehicle id="veh75" depart="169.50" departLane="best" departPos="random" departSpeed="max">
        <route edges="-223632525#2 223632520#1 223632520#2 -E2 -649064895 649064895"/>
    </vehicle>
    <vehicle id="veh78" depart="176.28" departLane="best" departPos="random" departSpeed="max">
        <route edges="-649064895 E4 258728090#4 -E1 -223632520#1"/>
    </vehicle>
    <vehicle id="veh79" depart="178.54" departLane="best" departPos="random" departSpeed="max">
        <route edges="649064895 -649064895"/>
    </vehicle>
    <vehicle id="veh80" depart="180.80" departLane="best" departPos="random" departSpeed="max">
        <route edges="-E4 649064896#1 -258728090#2 -258728090#0 671642282 223632526"/>
    </vehicle>
    <vehicle id="veh81" depart="183.06" departLane="best" departPos="random" departSpeed="max">
        <route edges="671642282 223632526"/>
    </vehicle>
    <vehicle id="veh83" depart="187.58" departLane="best" departPos="random" departSpeed="max">
        <route edges="-671642282 258728090#0 258728090#1 -649064896#1 649064896#1 -258728090#2 -258728090#0 671642282"/>
    </vehicle>
    <vehicle id="veh84" depart="189.84" departLane="best" departPos="random" departSpeed="max">
        <route edges="223632520#1 E1 -258728090#4 258728090#4"/>
    </vehicle>
    <vehicle id="veh85" depart="192.10" departLane="best" departPos="random" departSpeed="max">
        <route edges="223632522 -649040853#1 -E3 -E2 -649064895 649064895 E2 E3 649040853#1"/>
    </vehicle>
    <vehicle id="veh86" depart="194.36" departLane="best" departPos="random" departSpeed="max">
        <route edges="223632517 -E3 -223632520#2 E1 -258728090#4 -E4"/>
    </vehicle>
    <vehicle id="veh87" depart="196.62" departLane="best" departPos="random" departSpeed="max">
        <route edges="-258728090#2 223632517 -E3 -223632520#2 E1 -258728090#4"/>
    </vehicle>
    <vehicle id="veh88" depart="198.88" departLane="best" departPos="random" departSpeed="max">
        <route edges="-223632520#2 E1 -258728090#4 -E4 649064896#1"/>
    </vehicle>
    <vehicle id="veh89" depart="201.14" departLane="best" departPos="random" departSpeed="max">
        <route edges="-649036317#3 E1 -223632525#2 223632520#1 649036317#3"/>
    </vehicle>
    <vehicle id="veh90" depart="203.40" departLane="best" departPos="random" departSpeed="max">
        <route edges="-223632517 258728090#1 258728090#3 258728090#4 -E1 -223632520#1"/>
    </vehicle>
    <vehicle id="veh91" depart="205.66" departLane="best" departPos="random" departSpeed="max">
        <route edges="223632520#0 223632525#1 -258728090#4 -258728090#3 -258728090#2"/>
    </vehicle>
    <vehicle id="veh92" depart="207.92" departLane="best" departPos="random" departSpeed="max">
        <route edges="-223632517 258728090#1 -649064896#1 649064895"/>
    </vehicle>
    <vehicle id="veh94" depart="212.44" departLane="best" departPos="random" departSpeed="max">
        <route edges="-649040853#1 -E3 -E2 -649064895 E4 258728090#4"/>
    </vehicle>
    <vehicle id="veh96" depart="216.96" departLane="best" departPos="random" departSpeed="max">
        <route edges="649064896#1 258728090#3 258728090#4 -223632525#2 223632520#1"/>
    </vehicle>
    <vehicle id="veh97" depart="219.22" departLane="best" departPos="random" departSpeed="max">
        <route edges="223632522 -649040853#1 -E3 -223632520#2 -223632520#1 -223632520#0"/>
    </vehicle>
    <vehicle id="veh98" depart="221.48" departLane="best" departPos="random" departSpeed="max">
        <route edges="-671642282 258728090#0 223632517 -E3 -E2"/>
    </vehicle>
    <vehicle id="veh100" depart="226.00" departLane="best" departPos="random" departSpeed="max">
        <route edges="649064895 -649064895 E4 258728090#4 -E1 223632520#2"/>
    </vehicle>
    <vehicle id="veh101" depart="228.26" departLane="best" departPos="random" departSpeed="max">
        <route edges="-223632526 -671642282 258728090#0 258728090#1 258728090#3 258728090#4 -223632525#2 223632520#1"/>
    </vehicle>
    <vehicle id="veh103" depart="232.78" departLane="best" departPos="random" departSpeed="max">
        <route edges="-649064896#1 649064895 E2 -223632520#2"/>
    </vehicle>
    <vehicle id="veh106" depart="239.56" departLane="best" departPos="random" departSpeed="max">
        <route edges="E2 E3 649040853#1"/>
    </vehicle>
    <vehicle id="veh107" depart="241.82" departLane="best" departPos="random" departSpeed="max">
        <route edges="E2 -223632520#2 -223632520#1 223632525#1 -E1"/>
    </vehicle>
    <vehicle id="veh108" depart="244.08" departLane="best" departPos="random" departSpeed="max">
        <route edges="258728090#3 -E4 649064896#1 -258728090#2 223632517 -E3"/>
    </vehicle>
    <vehicle id="veh109" depart="246.34" departLane="best" departPos="random" departSpeed="max">
        <route edges="223632520#0 223632525#1 -258728090#4 -258728090#3 -258728090#2"/>
    </vehicle>
    <vehicle id="veh110" depart="248.60" departLane="best" departPos="random" departSpeed="max">
        <route edges="258728090#0 258728090#1 -649064896#1 649064895 E2 E3 -223632517"/>
    </vehicle>
    <vehicle id="veh111" depart="250.86" departLane="best" departPos="random" departSpeed="max">
        <route edges="258728090#1 258728090#3"/>
    </vehicle>
    <vehicle id="veh112" depart="253.12" departLane="best" departPos="random" departSpeed="max">
        <route edges="-E1 223632520#2 -E2 -649064895 E4 258728090#4"/>
    </vehicle>
    <vehicle id="veh113" depart="255.38" departLane="best" departPos="random" departSpeed="max">
        <route edges="-E4 649064895 E2 -223632520#2 649036317#3"/>
    </vehicle>
    <vehicle id="veh115" depart="259.90" departLane="best" departPos="random" departSpeed="max">
        <route edges="-E2 -649064895 649064895 E2 E3"/>
    </vehicle>
    <vehicle id="veh116" depart="262.16" departLane="best" departPos="random" departSpeed="max">
        <route edges="-223632526 -671642282 258728090#0 258728090#1 258728090#3 258728090#4 -E1 223632520#2"/>
    </vehicle>
    <vehicle id="veh117" depart="264.42" departLane="best" departPos="random" departSpeed="max">
        <route edges="-223632517 258728090#1 258728090#3 258728090#4 -223632525#2"/>
    </vehicle>
    <vehicle id="veh118" depart="266.68" departLane="best" departPos="random" departSpeed="max">
        <route edges="649064895 E2 E3 649040853#1 649040853#2"/>
    </vehicle>
    <vehicle id="veh119" depart="268.94" departLane="best" departPos="random" departSpeed="max">
        <route edges="649064896#1 258728090#3 258728090#4 -223632525#2"/>
    </vehicle>
    <vehicle id="veh120" depart="271.20" departLane="best" departPos="random" departSpeed="max">
        <route edges="-258728090#3 -649064896#1 649064895"/>
    </vehicle>
    <vehicle id="veh121" depart="273.46" departLane="best" departPos="random" departSpeed="max">
        <route edges="-649036317#3 223632520#2 E3 -223632517 -258728090#0 671642282"/>
    </vehicle>
    <vehicle id="veh123" depart="277.98" departLane="best" departPos="random" departSpeed="max">
        <route edges="-223632520#2 E1 -258728090#4"/>
    </vehicle>
    <vehicle id="veh124" depart="280.24" departLane="best" departPos="random" departSpeed="max">
        <route edges="-223632520#1 223632525#1 -258728090#4 -258728090#3 -258728090#2 -258728090#0 671642282 223632526"/>
    </vehicle>
    <vehicle id="veh125" depart="282.50" departLane="best" departPos="random" departSpeed="max">
        <route edges="E4 258728090#4 -E1 223632520#2 E3 649040853#1 649040853#2"/>
    </vehicle>
    <vehicle id="veh128" depart="289.28" departLane="best" departPos="random" departSpeed="max">
        <route edges="-223632526 -671642282 258728090#0 258728090#1 -649064896#1 649064896#1 -258728090#2 -258728090#0 671642282 223632526"/>
    </vehicle>
    <vehicle id="veh129" depart="291.54" departLane="best" departPos="random" departSpeed="max">
        <route edges="E4 258728090#4 -E1 223632520#2"/>
    </vehicle>
    <vehicle id="veh130" depart="293.80" departLane="best" departPos="random" departSpeed="max">
        <route edges="E2 -223632520#2 649036317#3"/>
    </vehicle>
    <vehicle id="veh131" depart="296.06" departLane="best" departPos="random" departSpeed="max">
        <route edges="223632520#1 223632520#2 E3 -223632517 -258728090#0 671642282 223632526"/>
    </vehicle>
    <vehicle id="veh132" depart="298.32" departLane="best" departPos="random" departSpeed="max">
        <route edges="223632525#0 223632525#1 -258728090#4 -E4 649064895 E2"/>
    </vehicle>
    <vehicle id="veh133" depart="300.58" departLane="best" departPos="random" departSpeed="max">
        <route edges="-E2 -649064895 E4 258728090#4 -E1 649036317#3"/>
    </vehicle>
    <vehicle id="veh134" depart="302.84" departLane="best" departPos="random" departSpeed="max">
        <route edges="223632517 -E3 -223632520#2 E1"/>
    </vehicle>
    <vehicle id="veh135" depart="305.10" departLane="best" departPos="random" departSpeed="max">
        <route edges="-223632520#1 223632525#1 -258728090#4 258728090#4 -223632525#2 223632520#1"/>
    </vehicle>
    <vehicle id="veh136" depart="307.36" departLane="best" departPos="random" departSpeed="max">
        <route edges="-223632526 -671642282 258728090#0 258728090#1 -649064896#1 649064896#1"/>
    </vehicle>
    <vehicle id="veh137" depart="309.62" departLane="best" departPos="random" departSpeed="max">
        <route edges="-E2 -649064895 E4"/>
    </vehicle>
    <vehicle id="veh138" depart="311.88" departLane="best" departPos="random" departSpeed="max">
        <route edges="-258728090#3 -649064896#1 649064895 E2 -223632520#2 -223632520#1"/>
    </vehicle>
    <vehicle id="veh139" depart="314.14" departLane="best" departPos="random" departSpeed="max">
        <route edges="-223632520#1 223632525#1 -258728090#4 258728090#4 -223632525#2 223632520#1 E1"/>
    </vehicle>
    <vehicle id="veh140" depart="316.40" departLane="best" departPos="random" departSpeed="max">
        <route edges="-671642282 258728090#0 223632517 -E3 -223632520#2 649036317#3"/>
    </vehicle>
    <vehicle id="veh141" depart="318.66" departLane="best" departPos="random" departSpeed="max">
        <route edges="-223632526 -671642282 258728090#0 258728090#1 -649064896#1 649064896#1 -258728090#2 -258728090#0 671642282 223632526"/>
    </vehicle>
    <vehicle id="veh142" depart="320.92" departLane="best" departPos="random" departSpeed="max">
        <route edges="-223632520#1 223632525#1 -258728090#4 -E4 649064895 -649064895"/>
    </vehicle>
    <vehicle id="veh143" depart="323.18" departLane="best" departPos="random" departSpeed="max">
        <route edges="-E2 -649064895 649064896#1"/>
    </vehicle>
    <vehicle id="veh145" depart="327.70" departLane="best" departPos="random" departSpeed="max">
        <route edges="-E3 -223632520#2"/>
    </vehicle>
    <vehicle id="veh146" depart="329.96" departLane="best" departPos="random" departSpeed="max">
        <route edges="-223632525#2 223632520#1 E1 -258728090#4 -258728090#3 -258728090#2 223632517"/>
    </vehicle>
    <vehicle id="veh147" depart="332.22" departLane="best" departPos="random" departSpeed="max">
        <route edges="E2 -223632520#2 E1 -258728090#4 -E4 649064895 -649064895"/>
    </vehicle>
    <vehicle id="veh149" depart="336.74" departLane="best" departPos="random" departSpeed="max">
        <route edges="-649036317#3 E1 -258728090#4 258728090#4"/>
    </vehicle>
    <vehicle id="veh150" depart="339.00" departLane="best" departPos="random" departSpeed="max">
        <route edges="E4 -258728090#3 -649064896#1 649064895 E2 -223632520#2"/>
    </vehicle>
    <vehicle id="veh151" depart="341.26" departLane="best" departPos="random" departSpeed="max">
        <route edges="E2 E3 -223632517 258728090#1"/>
    </vehicle>
    <vehicle id="veh152" depart="343.52" departLane="best" departPos="random" departSpeed="max">
        <route edges="-258728090#2 -258728090#0 671642282"/>
    </vehicle>
    <vehicle id="veh153" depart="345.78" departLane="best" departPos="random" departSpeed="max">
        <route edges="-223632520#1 223632525#1 -258728090#4 258728090#4 -223632525#2 223632520#1 E1"/>
    </vehicle>
    <vehicle id="veh154" depart="348.04" departLane="best" departPos="random" departSpeed="max">
        <route edges="223632520#2 -E2 -649064895 649064896#1"/>
    </vehicle>
    <vehicle id="veh156" depart="352.56" departLane="best" departPos="random" departSpeed="max">
        <route edges="-E3 -223632520#2 649036317#3"/>
    </vehicle>
    <vehicle id="veh157" depart="354.82" departLane="best" departPos="random" departSpeed="max">
        <route edges="-671642282 258728090#0 223632517 649040853#1"/>
    </vehicle>
    <vehicle id="veh158" depart="357.08" departLane="best" departPos="random" departSpeed="max">
        <route edges="-649036317#3 E1 -223632525#2 223632520#1"/>
    </vehicle>
    <vehicle id="veh159" depart="359.34" departLane="best" departPos="random" departSpeed="max">
        <route edges="223632520#2 E3 649040853#1 -223632522"/>
    </vehicle>
    <vehicle id="veh160" depart="361.60" departLane="best" departPos="random" departSpeed="max">
        <route edges="-223632517 258728090#1 -649064896#1 649064896#1 -258728090#2 223632517 -E3"/>
    </vehicle>
    <vehicle id="veh161" depart="363.86" departLane="best" departPos="random" departSpeed="max">
        <route edges="-258728090#3 -649064896#1 649064895 E2 E3"/>
    </vehicle>
    <vehicle id="veh162" depart="366.12" departLane="best" departPos="random" departSpeed="max">
        <route edges="223632525#0 223632525#1 -258728090#4 -E4 649064896#1 258728090#3"/>
    </vehicle>
    <vehicle id="veh163" depart="368.38" departLane="best" departPos="random" departSpeed="max">
        <route edges="258728090#1 258728090#3 -E4"/>
    </vehicle>
    <vehicle id="veh164" depart="370.64" departLane="best" departPos="random" departSpeed="max">
        <route edges="-223632520#1 223632525#1 -258728090#4 -258728090#3 -649064896#1"/>
    </vehicle>
    <vehicle id="veh165" depart="372.90" departLane="best" departPos="random" departSpeed="max">
        <route edges="-223632525#2 223632520#1 E1 -258728090#4 -258728090#3 -258728090#2"/>
    </vehicle>
    <vehicle id="veh166" depart="375.16" departLane="best" departPos="random" departSpeed="max">
        <route edges="223632520#2 E3 -223632517 -258728090#0 671642282 223632526"/>
    </vehicle>
    <vehicle id="veh167" depart="377.42" departLane="best" departPos="random" departSpeed="max">
        <route edges="-649064895 E4 258728090#4 -E1 223632520#2 -E2"/>
    </vehicle>
    <vehicle id="veh168" depart="379.68" departLane="best" departPos="random" departSpeed="max">
        <route edges="223632525#1 -258728090#4 -258728090#3 -649064896#1 E4"/>
    </vehicle>
    <vehicle id="veh170" depart="384.20" departLane="best" departPos="random" departSpeed="max">
        <route edges="E4 258728090#4 -E1 223632520#2 E3 649040853#1 649040853#2"/>
    </vehicle>
    <vehicle id="veh171" depart="386.46" departLane="best" departPos="random" departSpeed="max">
        <route edges="-E3 -E2 -649064895 E4"/>
    </vehicle>
    <vehicle id="veh172" depart="388.72" departLane="best" departPos="random" departSpeed="max">
        <route edges="223632520#0 223632525#1 -258728090#4 -E4"/>
    </vehicle>
    <vehicle id="veh173" depart="390.98" departLane="best" departPos="random" departSpeed="max">
        <route edges="223632520#1 223632520#2 E3 649040853#1"/>
    </vehicle>
    <vehicle id="veh176" depart="397.76" departLane="best" departPos="random" departSpeed="max">
        <route edges="-649036317#3 E1 -258728090#4 -258728090#3 -649064896#1"/>
    </vehicle>
    <vehicle id="veh177" depart="400.02" departLane="best" departPos="random" departSpeed="max">
        <route edges="-223632517"/>
    </vehicle>
    <vehicle id="veh178" depart="402.28" departLane="best" departPos="random" departSpeed="max">
        <route edges="-223632520#2 E1 -258728090#4 -E4 649064895"/>
    </vehicle>
    <vehicle id="veh179" depart="404.54" departLane="best" departPos="random" departSpeed="max">
        <route edges="-671642282 258728090#0 258728090#1 -649064896#1 649064895"/>
    </vehicle>
    <vehicle id="veh180" depart="406.80" departLane="best" departPos="random" departSpeed="max">
        <route edges="E3 -223632517 -258728090#0 671642282"/>
    </vehicle>
    <vehicle id="veh181" depart="409.06" departLane="best" departPos="random" departSpeed="max">
        <route edges="-223632520#1 223632525#1 -258728090#4 -E4 649064895 E2 E3 -223632517 258728090#1"/>
    </vehicle>