<?xml version="1.0" encoding="UTF-8"?>

<!-- generated on 2025-05-11 05:43:41.002797 by randomTrips.py v1_22_0+0002-63e50f52594
<configuration>
    <net-file value="E:/licenta/oras-mic/2025-05-08-13-35-40\osm.net.xml"/>
    <output-trip-file value="E:/licenta/oras-mic/2025-05-08-13-35-40\trips.trips.xml"/>
    <route-file value="E:/licenta/oras-mic/2025-05-08-13-35-40\generated_routes\routes_worker2_0d607592.rou.xml"/>
    <prefix value="veh"/>
    <trip-attributes value="departLane=&quot;best&quot; departSpeed=&quot;max&quot; departPos=&quot;random&quot;"/>
    <fringe-factor value="3.4"/>
    <seed value="50151"/>
    <end value="600.0"/>
    <period value="1.83"/>
</configuration>
-->

<!-- generated on 2025-05-11 05:43:40 by Eclipse SUMO duarouter Version 1.22.0
<duarouterConfiguration xmlns:xsi="http://www.w3.org/2001/XMLSchema-instance" xsi:noNamespaceSchemaLocation="http://sumo.dlr.de/xsd/duarouterConfiguration.xsd">

    <input>
        <net-file value="E:/licenta/oras-mic/2025-05-08-13-35-40\osm.net.xml"/>
        <route-files value="E:/licenta/oras-mic/2025-05-08-13-35-40\trips.trips.xml"/>
    </input>

    <output>
        <output-file value="E:/licenta/oras-mic/2025-05-08-13-35-40\generated_routes\routes_worker2_0d607592.rou.xml"/>
        <alternatives-output value="NUL"/>
    </output>

    <time>
        <begin value="0"/>
        <end value="600.0"/>
    </time>

    <report>
        <no-warnings value="true"/>
        <ignore-errors value="true"/>
        <no-step-log value="true"/>
    </report>

</duarouterConfiguration>
-->

<routes xmlns:xsi="http://www.w3.org/2001/XMLSchema-instance" xsi:noNamespaceSchemaLocation="http://sumo.dlr.de/xsd/routes_file.xsd">
    <vehicle id="veh0" depart="0.00" departLane="best" departPos="random" departSpeed="max">
        <route edges="223632525#0 223632525#1 -258728090#4 -258728090#3 -258728090#2 223632517"/>
    </vehicle>
    <vehicle id="veh1" depart="2.48" departLane="best" departPos="random" departSpeed="max">
        <route edges="-223632520#2 E1 -223632525#2 223632520#1 223632520#2 -E2"/>
    </vehicle>
    <vehicle id="veh2" depart="4.96" departLane="best" departPos="random" departSpeed="max">
        <route edges="-144943776 -649040853#1 -E3 -E2 -649064895 649064895 E2 E3 649040853#1 649040853#2"/>
    </vehicle>
    <vehicle id="veh3" depart="7.44" departLane="best" departPos="random" departSpeed="max">
        <route edges="-649036317#3 223632520#2 E3 649040853#1 -223632522"/>
    </vehicle>
    <vehicle id="veh4" depart="9.92" departLane="best" departPos="random" departSpeed="max">
        <route edges="223632522 -649040853#1 -E3 -E2 -649064895 E4 -258728090#3 -649064896#1"/>
    </vehicle>
    <vehicle id="veh5" depart="12.40" departLane="best" departPos="random" departSpeed="max">
        <route edges="649064895 E2 E3 -223632517 -258728090#0 671642282"/>
    </vehicle>
    <vehicle id="veh7" depart="17.36" departLane="best" departPos="random" departSpeed="max">
        <route edges="223632525#1 -E1 -223632520#1 -223632525#0"/>
    </vehicle>
    <vehicle id="veh8" depart="19.84" departLane="best" departPos="random" departSpeed="max">
        <route edges="-E3 -E2 -649064895 E4"/>
    </vehicle>
    <vehicle id="veh9" depart="22.32" departLane="best" departPos="random" departSpeed="max">
        <route edges="-223632525#2 223632520#1 E1"/>
    </vehicle>
    <vehicle id="veh10" depart="24.80" departLane="best" departPos="random" departSpeed="max">
        <route edges="258728090#0 223632517 649040853#1 649040853#2"/>
    </vehicle>
    <vehicle id="veh11" depart="27.28" departLane="best" departPos="random" departSpeed="max">
        <route edges="223632525#0 223632520#1 E1 -223632525#2 -223632525#0"/>
    </vehicle>
    <vehicle id="veh12" depart="29.76" departLane="best" departPos="random" departSpeed="max">
        <route edges="-223632526 -671642282"/>
    </vehicle>
    <vehicle id="veh13" depart="32.24" departLane="best" departPos="random" departSpeed="max">
        <route edges="223632520#2 -E2 -649064895 E4 258728090#4 -223632525#2 -223632520#0"/>
    </vehicle>
    <vehicle id="veh14" depart="34.72" departLane="best" departPos="random" departSpeed="max">
        <route edges="-223632525#2 223632520#1 223632520#2 E3 -223632517 258728090#1"/>
    </vehicle>
    <vehicle id="veh15" depart="37.20" departLane="best" departPos="random" departSpeed="max">
        <route edges="223632517 -E3 -223632520#2"/>
    </vehicle>
    <vehicle id="veh16" depart="39.68" departLane="best" departPos="random" departSpeed="max">
        <route edges="-649064896#1"/>
    </vehicle>
    <vehicle id="veh17" depart="42.16" departLane="best" departPos="random" departSpeed="max">
        <route edges="-223632526 -671642282 258728090#0 223632517 -E3 -223632520#2 -223632520#1 -223632520#0"/>
    </vehicle>
    <vehicle id="veh18" depart="44.64" departLane="best" departPos="random" departSpeed="max">
        <route edges="223632522 -649040853#1 -E3 -E2 -649064895 E4 258728090#4 -E1 223632520#2"/>
    </vehicle>
    <vehicle id="veh19" depart="47.12" departLane="best" departPos="random" departSpeed="max">
        <route edges="223632525#0 223632520#1 649036317#3"/>
    </vehicle>
    <vehicle id="veh20" depart="49.60" departLane="best" departPos="random" departSpeed="max">
        <route edges="223632520#1 223632520#2 E3 -223632517 -258728090#0 671642282"/>
    </vehicle>
    <vehicle id="veh21" depart="52.08" departLane="best" departPos="random" departSpeed="max">
        <route edges="223632520#1 E1 -258728090#4"/>
    </vehicle>
    <vehicle id="veh22" depart="54.56" departLane="best" departPos="random" departSpeed="max">
        <route edges="-649036317#3 E1 -258728090#4 -258728090#3 -258728090#2 223632517 -E3"/>
    </vehicle>
    <vehicle id="veh23" depart="57.04" departLane="best" departPos="random" departSpeed="max">
        <route edges="258728090#4 -E1 223632520#2 E3 -223632517 -258728090#0"/>
    </vehicle>
    <vehicle id="veh24" depart="59.52" departLane="best" departPos="random" departSpeed="max">
        <route edges="258728090#4 -223632525#2 -223632525#0"/>
    </vehicle>
    <vehicle id="veh25" depart="62.00" departLane="best" departPos="random" departSpeed="max">
        <route edges="258728090#3 -E4 649064895 E2 E3 649040853#1 -223632522"/>
    </vehicle>
    <vehicle id="veh26" depart="64.48" departLane="best" departPos="random" departSpeed="max">
        <route edges="223632522 -649040853#1 -E3 -E2 -649064895 649064895 E2 E3 649040853#1"/>
    </vehicle>
    <vehicle id="veh27" depart="66.96" departLane="best" departPos="random" departSpeed="max">
        <route edges="E1 -258728090#4 258728090#4 -E1"/>
    </vehicle>
    <vehicle id="veh29" depart="71.92" departLane="best" departPos="random" departSpeed="max">
        <route edges="223632522 -649040853#1 -E3 -E2 -649064895 649064895 E2 E3 649040853#1 -223632522"/>
    </vehicle>
    <vehicle id="veh30" depart="74.40" departLane="best" departPos="random" departSpeed="max">
        <route edges="649040853#1 649040853#2"/>
    </vehicle>
    <vehicle id="veh32" depart="79.36" departLane="best" departPos="random" departSpeed="max">
        <route edges="-E3 -223632520#2 E1 -258728090#4 -E4"/>
    </vehicle>
    <vehicle id="veh33" depart="81.84" departLane="best" departPos="random" departSpeed="max">
        <route edges="-144943776 -649040853#1 -223632517 258728090#1"/>
    </vehicle>
    <vehicle id="veh34" depart="84.32" departLane="best" departPos="random" departSpeed="max">
        <route edges="258728090#0 258728090#1 -649064896#1 649064895 E2"/>
    </vehicle>
    <vehicle id="veh35" depart="86.80" departLane="best" departPos="random" departSpeed="max">
        <route edges="E1 -258728090#4 -E4 649064895 -649064895"/>
    </vehicle>
    <vehicle id="veh36" depart="89.28" departLane="best" departPos="random" departSpeed="max">
        <route edges="258728090#4 -E1 649036317#3"/>
    </vehicle>
    <vehicle id="veh37" depart="91.76" departLane="best" departPos="random" departSpeed="max">
        <route edges="258728090#4 -E1 223632520#2"/>
    </vehicle>
    <vehicle id="veh38" depart="94.24" departLane="best" departPos="random" departSpeed="max">
        <route edges="E4 -258728090#3 -258728090#2"/>
    </vehicle>
    <vehicle id="veh39" depart="96.72" departLane="best" departPos="random" departSpeed="max">
        <route edges="-E2 -649064895 649064896#1 -258728090#2"/>
    </vehicle>
    <vehicle id="veh40" depart="99.20" departLane="best" departPos="random" departSpeed="max">
        <route edges="-223632526 -671642282 258728090#0 258728090#1 258728090#3 258728090#4 -E1 223632520#2"/>
    </vehicle>
    <vehicle id="veh41" depart="101.68" departLane="best" departPos="random" departSpeed="max">
        <route edges="223632522 -649040853#1 -223632517"/>
    </vehicle>
    <vehicle id="veh42" depart="104.16" departLane="best" departPos="random" departSpeed="max">
        <route edges="E1 -258728090#4 -E4 649064895 E2 -223632520#2"/>
    </vehicle>
    <vehicle id="veh43" depart="106.64" departLane="best" departPos="random" departSpeed="max">
        <route edges="-649036317#3 E1 -223632525#2 223632520#1 649036317#3"/>
    </vehicle>
    <vehicle id="veh44" depart="109.12" departLane="best" departPos="random" departSpeed="max">
        <route edges="649064896#1 -258728090#2 -258728090#0 671642282"/>
    </vehicle>
    <vehicle id="veh45" depart="111.60" departLane="best" departPos="random" departSpeed="max">
        <route edges="-144943776 -649040853#1 -223632517 -258728090#0 671642282 223632526"/>
    </vehicle>
    <vehicle id="veh46" depart="114.08" departLane="best" departPos="random" departSpeed="max">
        <route edges="223632520#0 223632525#1"/>
    </vehicle>
    <vehicle id="veh47" depart="116.56" departLane="best" departPos="random" departSpeed="max">
        <route edges="223632525#0 223632520#1 223632520#2 E3 -223632517 258728090#1"/>
    </vehicle>
    <vehicle id="veh48" depart="119.04" departLane="best" departPos="random" departSpeed="max">
        <route edges="-144943776 -649040853#1 -E3 -E2 -649064895 E4 258728090#4 -223632525#2"/>
    </vehicle>
    <vehicle id="veh49" depart="121.52" departLane="best" departPos="random" departSpeed="max">
        <route edges="-649036317#3 223632520#2 E3 649040853#1 -223632522"/>
    </vehicle>
    <vehicle id="veh50" depart="124.00" departLane="best" departPos="random" departSpeed="max">
        <route edges="223632517 -E3 -E2 -649064895 649064895 E2 E3 -223632517 258728090#1"/>
    </vehicle>
    <vehicle id="veh51" depart="126.48" departLane="best" departPos="random" departSpeed="max">
        <route edges="649064895 E2"/>
    </vehicle>
    <vehicle id="veh52" depart="128.96" departLane="best" departPos="random" departSpeed="max">
        <route edges="-144943776 -649040853#1 -E3 -E2 -649064895 E4"/>
    </vehicle>
    <vehicle id="veh53" depart="131.44" departLane="best" departPos="random" departSpeed="max">
        <route edges="E4 258728090#4 -E1 223632520#2 E3 649040853#1 649040853#2"/>
    </vehicle>
    <vehicle id="veh54" depart="133.92" departLane="best" departPos="random" departSpeed="max">
        <route edges="649064896#1 258728090#3 258728090#4 -223632525#2 223632520#1"/>
    </vehicle>
    <vehicle id="veh55" depart="136.40" departLane="best" departPos="random" departSpeed="max">
        <route edges="-144943776 -649040853#1 -E3 -223632520#2"/>
    </vehicle>
    <vehicle id="veh56" depart="138.88" departLane="best" departPos="random" departSpeed="max">
        <route edges="258728090#3 258728090#4 -E1 223632520#2 -E2"/>
    </vehicle>
    <vehicle id="veh57" depart="141.36" departLane="best" departPos="random" departSpeed="max">
        <route edges="E3 -223632517"/>
    </vehicle>
    <vehicle id="veh58" depart="143.84" departLane="best" departPos="random" departSpeed="max">
        <route edges="-649036317#3 223632520#2 E3 -223632517 -258728090#0 671642282 223632526"/>
    </vehicle>
    <vehicle id="veh59" depart="146.32" departLane="best" departPos="random" departSpeed="max">
        <route edges="-144943776 -649040853#1 -E3 -E2 -649064895 E4 -258728090#3"/>
    </vehicle>
    <vehicle id="veh60" depart="148.80" departLane="best" departPos="random" departSpeed="max">
        <route edges="223632520#0 223632520#1 223632520#2 E3 649040853#1 -223632522"/>
    </vehicle>
    <vehicle id="veh61" depart="151.28" departLane="best" departPos="random" departSpeed="max">
        <route edges="E3 -223632517 258728090#1 258728090#3 258728090#4 -223632525#2 -223632525#0"/>
    </vehicle>
    <vehicle id="veh62" depart="153.76" departLane="best" departPos="random" departSpeed="max">
        <route edges="223632525#0 223632520#1 649036317#3"/>
    </vehicle>
    <vehicle id="veh63" depart="156.24" departLane="best" departPos="random" departSpeed="max">
        <route edges="223632520#0 223632525#1 -258728090#4"/>
    </vehicle>
    <vehicle id="veh64" depart="158.72" departLane="best" departPos="random" departSpeed="max">
        <route edges="-649036317#3 223632520#2 E3 -223632517 -258728090#0 671642282"/>
    </vehicle>
    <vehicle id="veh66" depart="163.68" departLane="best" departPos="random" departSpeed="max">
        <route edges="-649040853#1 -E3 -E2 -649064895"/>
    </vehicle>
    <vehicle id="veh68" depart="168.64" departLane="best" departPos="random" departSpeed="max">
        <route edges="-E1 223632520#2 -E2 -649064895 E4 258728090#4 -223632525#2 223632520#1"/>
    </vehicle>
    <vehicle id="veh69" depart="171.12" departLane="best" departPos="random" departSpeed="max">
        <route edges="-223632525#2 -223632525#0"/>
    </vehicle>
    <vehicle id="veh70" depart="173.60" departLane="best" departPos="random" departSpeed="max">
        <route edges="-649064895 E4 258728090#4 -223632525#2"/>
    </vehicle>
    <vehicle id="veh71" depart="176.08" departLane="best" departPos="random" departSpeed="max">
        <route edges="-144943776 -649040853#1 -E3 -E2 -649064895 649064896#1 -258728090#2"/>
    </vehicle>
    <vehicle id="veh72" depart="178.56" departLane="best" departPos="random" departSpeed="max">
        <route edges="-E4 649064895 E2 E3"/>
    </vehicle>
    <vehicle id="veh73" depart="181.04" departLane="best" departPos="random" departSpeed="max">
        <route edges="-258728090#4 258728090#4"/>
    </vehicle>
    <vehicle id="veh75" depart="186.00" departLane="best" departPos="random" departSpeed="max">
        <route edges="649064896#1 -258728090#2 -258728090#0 671642282 223632526"/>
    </vehicle>
    <vehicle id="veh76" depart="188.48" departLane="best" departPos="random" departSpeed="max">
        <route edges="223632520#0 223632520#1 E1 -223632525#2 -223632520#0"/>
    </vehicle>
    <vehicle id="veh77" depart="190.96" departLane="best" departPos="random" departSpeed="max">
        <route edges="223632520#2 -E2 -649064895 649064896#1 258728090#3 -E4"/>
    </vehicle>
    <vehicle id="veh79" depart="195.92" departLane="best" departPos="random" departSpeed="max">
        <route edges="-223632525#2 223632520#1 223632520#2 E3 649040853#1 -223632522"/>
    </vehicle>
    <vehicle id="veh80" depart="198.40" departLane="best" departPos="random" departSpeed="max">
        <route edges="-223632526 -671642282 258728090#0 258728090#1 -649064896#1 E4 -258728090#3"/>
    </vehicle>
    <vehicle id="veh81" depart="200.88" departLane="best" departPos="random" departSpeed="max">
        <route edges="-671642282 258728090#0 223632517 -E3 -223632520#2 -223632520#1 -223632520#0"/>
    </vehicle>
    <vehicle id="veh82" depart="203.36" departLane="best" departPos="random" departSpeed="max">
        <route edges="-649064895 649064895 E2 E3 649040853#1 649040853#2"/>
    </vehicle>
    <vehicle id="veh83" depart="205.84" departLane="best" departPos="random" departSpeed="max">
        <route edges="258728090#4 -223632525#2 223632520#1 E1"/>
    </vehicle>
    <vehicle id="veh84" depart="208.32" departLane="best" departPos="random" departSpeed="max">
        <route edges="223632520#0 223632520#1 223632520#2 E3 649040853#1 649040853#2"/>
    </vehicle>
    <vehicle id="veh85" depart="210.80" departLane="best" departPos="random" departSpeed="max">
        <route edges="E2 -223632520#2 E1 -258728090#4 -E4"/>
    </vehicle>
    <vehicle id="veh86" depart="213.28" departLane="best" departPos="random" departSpeed="max">
        <route edges="-649064895 649064895 E2 E3"/>
    </vehicle>
    <vehicle id="veh87" depart="215.76" departLane="best" departPos="random" departSpeed="max">
        <route edges="649040853#1 -223632522"/>
    </vehicle>
    <vehicle id="veh88" depart="218.24" departLane="best" departPos="random" departSpeed="max">
        <route edges="-649040853#1 -E3 -223632520#2 -223632520#1 -223632520#0"/>
    </vehicle>
    <vehicle id="veh89" depart="220.72" departLane="best" departPos="random" departSpeed="max">
        <route edges="-649064895 649064896#1 -258728090#2 223632517 -E3"/>
    </vehicle>
    <vehicle id="veh90" depart="223.20" departLane="best" departPos="random" departSpeed="max">
        <route edges="-144943776 -223632522"/>
    </vehicle>
    <vehicle id="veh91" depart="225.68" departLane="best" departPos="random" departSpeed="max">
        <route edges="223632520#2 -E2 -649064895 E4 258728090#4 -223632525#2 223632520#1"/>
    </vehicle>
    <vehicle id="veh92" depart="228.16" departLane="best" departPos="random" departSpeed="max">
        <route edges="-144943776 -649040853#1 -E3 -E2 -649064895 649064896#1"/>
    </vehicle>
    <vehicle id="veh93" depart="230.64" departLane="best" departPos="random" departSpeed="max">
        <route edges="258728090#1 258728090#3 258728090#4 -E1 649036317#3"/>
    </vehicle>
    <vehicle id="veh94" depart="233.12" departLane="best" departPos="random" departSpeed="max">
        <route edges="-E4 649064895 E2 -223632520#2 -223632520#1 -223632525#0"/>
    </vehicle>
    <vehicle id="veh95" depart="235.60" departLane="best" departPos="random" departSpeed="max">
        <route edges="258728090#1 -649064896#1 649064895 E2 E3 649040853#1 -223632522"/>
    </vehicle>
    <vehicle id="veh96" depart="238.08" departLane="best" departPos="random" departSpeed="max">
        <route edges="-E4 649064895 E2 E3 -223632517"/>
    </vehicle>
    <vehicle id="veh98" depart="243.04" departLane="best" departPos="random" departSpeed="max">
        <route edges="E3 -223632517 258728090#1 -649064896#1 649064895 E2"/>
    </vehicle>
    <vehicle id="veh99" depart="245.52" departLane="best" departPos="random" departSpeed="max">
        <route edges="-258728090#4 -258728090#3 -258728090#2"/>
    </vehicle>
    <vehicle id="veh100" depart="248.00" departLane="best" departPos="random" departSpeed="max">
        <route edges="-223632525#2 223632520#1 223632520#2 E3 649040853#1 649040853#2"/>
    </vehicle>
    <vehicle id="veh101" depart="250.48" departLane="best" departPos="random" departSpeed="max">
        <route edges="223632520#0 223632520#1 223632520#2 E3 649040853#1 649040853#2"/>
    </vehicle>
    <vehicle id="veh103" depart="255.44" departLane="best" departPos="random" departSpeed="max">
        <route edges="258728090#0 223632517 649040853#1"/>
    </vehicle>
    <vehicle id="veh104" depart="257.92" departLane="best" departPos="random" departSpeed="max">
        <route edges="223632522 -649040853#1 -E3 -E2 -649064895 E4 258728090#4"/>
    </vehicle>
    <vehicle id="veh105" depart="260.40" departLane="best" departPos="random" departSpeed="max">
        <route edges="223632522 -649040853#1 -E3 -E2 -649064895 649064895 E2"/>
    </vehicle>
    <vehicle id="veh106" depart="262.88" departLane="best" departPos="random" departSpeed="max">
        <route edges="-258728090#2 -258728090#0"/>
    </vehicle>
    <vehicle id="veh107" depart="265.36" departLane="best" departPos="random" departSpeed="max">
        <route edges="-E4 649064895 E2 -223632520#2 -223632520#1 -223632520#0"/>
    </vehicle>
    <vehicle id="veh108" depart="267.84" departLane="best" departPos="random" departSpeed="max">
        <route edges="223632517 -E3 -223632520#2 E1 -258728090#4"/>
    </vehicle>
    <vehicle id="veh109" depart="270.32" departLane="best" departPos="random" departSpeed="max">
        <route edges="649064895 E2 -223632520#2 -223632520#1 -223632525#0"/>
    </vehicle>
    <vehicle id="veh110" depart="272.80" departLane="best" departPos="random" departSpeed="max">
        <route edges="-258728090#4 -258728090#3 -258728090#2 -258728090#0"/>
    </vehicle>
    <vehicle id="veh111" depart="275.28" departLane="best" departPos="random" departSpeed="max">
        <route edges="258728090#1 258728090#3 258728090#4 -E1 649036317#3"/>
    </vehicle>
    <vehicle id="veh112" depart="277.76" departLane="best" departPos="random" departSpeed="max">
        <route edges="223632520#0 223632520#1 223632520#2 E3 649040853#1"/>
    </vehicle>
    <vehicle id="veh113" depart="280.24" departLane="best" departPos="random" departSpeed="max">
        <route edges="-E3 -223632520#2"/>
    </vehicle>
    <vehicle id="veh114" depart="282.72" departLane="best" departPos="random" departSpeed="max">
        <route edges="223632525#0 223632520#1 223632520#2 -E2 -649064895"/>
    </vehicle>
    <vehicle id="veh115" depart="285.20" departLane="best" departPos="random" departSpeed="max">
        <route edges="258728090#4 -E1 223632520#2 -E2 -649064895 649064895"/>
    </vehicle>
    <vehicle id="veh116" depart="287.68" departLane="best" departPos="random" departSpeed="max">
        <route edges="-671642282 258728090#0 223632517 -E3 -223632520#2 E1"/>
    </vehicle>
    <vehicle id="veh117" depart="290.16" departLane="best" departPos="random" departSpeed="max">
        <route edges="E2 E3 -223632517 258728090#1 -649064896#1 E4"/>
    </vehicle>
    <vehicle id="veh118" depart="292.64" departLane="best" departPos="random" departSpeed="max">
        <route edges="E2 -223632520#2 -223632520#1 -223632525#0"/>
    </vehicle>
    <vehicle id="veh119" depart="295.12" departLane="best" departPos="random" departSpeed="max">
        <route edges="258728090#0 223632517 -E3 -223632520#2"/>
    </vehicle>
    <vehicle id="veh120" depart="297.60" departLane="best" departPos="random" departSpeed="max">
        <route edges="223632520#2 E3 -223632517 -258728090#0 671642282 223632526"/>
    </vehicle>
    <vehicle id="veh121" depart="300.08" departLane="best" departPos="random" departSpeed="max">
        <route edges="-E3 -E2 -649064895 649064896#1 -258728090#2 -258728090#0 671642282 223632526"/>
    </vehicle>
    <vehicle id="veh122" depart="302.56" departLane="best" departPos="random" departSpeed="max">
        <route edges="-E4 649064896#1 258728090#3 258728090#4 -E1"/>
    </vehicle>
    <vehicle id="veh123" depart="305.04" departLane="best" departPos="random" departSpeed="max">
        <route edges="649040853#1"/>
    </vehicle>
    <vehicle id="veh124" depart="307.52" departLane="best" departPos="random" departSpeed="max">
        <route edges="223632520#0 223632520#1 E1 -223632525#2"/>
    </vehicle>
    <vehicle id="veh125" depart="310.00" departLane="best" departPos="random" departSpeed="max">
        <route edges="258728090#1 258728090#3 258728090#4 -223632525#2 -223632520#0"/>
    </vehicle>
    <vehicle id="veh126" depart="312.48" departLane="best" departPos="random" departSpeed="max">
        <route edges="223632525#0 223632520#1 223632520#2 E3 649040853#1 -223632522"/>
    </vehicle>
    <vehicle id="veh127" depart="314.96" departLane="best" departPos="random" departSpeed="max">
        <route edges="E2 -223632520#2 E1 -258728090#4 -258728090#3 -258728090#2 223632517 -E3"/>
    </vehicle>
    <vehicle id="veh129" depart="319.92" departLane="best" departPos="random" departSpeed="max">
        <route edges="-223632525#2 223632520#1 E1 -258728090#4 258728090#4 -E1"/>
    </vehicle>
    <vehicle id="veh130" depart="322.40" departLane="best" departPos="random" departSpeed="max">
        <route edges="649064895 E2 E3"/>
    </vehicle>
    <vehicle id="veh131" depart="324.88" departLane="best" departPos="random" departSpeed="max">
        <route edges="258728090#0 258728090#1 258728090#3 258728090#4 -223632525#2 223632520#1"/>
    </vehicle>
    <vehicle id="veh133" depart="329.84" departLane="best" departPos="random" departSpeed="max">
        <route edges="-649036317#3 223632520#2 E3 -223632517 258728090#1"/>
    </vehicle>
    <vehicle id="veh134" depart="332.32" departLane="best" departPos="random" departSpeed="max">
        <route edges="258728090#4 -E1 223632520#2 E3 649040853#1 649040853#2"/>
    </vehicle>
    <vehicle id="veh135" depart="334.80" departLane="best" departPos="random" departSpeed="max">
        <route edges="223632525#1"/>
    </vehicle>
    <vehicle id="veh136" depart="337.28" departLane="best" departPos="random" departSpeed="max">
        <route edges="-223632526 -671642282 258728090#0 258728090#1 258728090#3 258728090#4 -E1"/>
    </vehicle>
    <vehicle id="veh137" depart="339.76" departLane="best" departPos="random" departSpeed="max">
        <route edges="-223632526 -671642282 258728090#0 258728090#1"/>
    </vehicle>
    <vehicle id="veh138" depart="342.24" departLane="best" departPos="random" departSpeed="max">
        <route edges="-223632520#2 E1 -258728090#4 -258728090#3 -258728090#2 -258728090#0 671642282 223632526"/>
    </vehicle>
    <vehicle id="veh139" depart="344.72" departLane="best" departPos="random" departSpeed="max">
        <route edges="223632525#0 223632525#1 -258728090#4"/>
    </vehicle>
    <vehicle id="veh140" depart="347.20" departLane="best" departPos="random" departSpeed="max">
        <route edges="-E3 -223632520#2 -223632520#1 223632525#1"/>
    </vehicle>
    <vehicle id="veh141" depart="349.68" departLane="best" departPos="random" departSpeed="max">
        <route edges="-E4 649064896#1 -258728090#2 -258728090#0 671642282 223632526"/>
    </vehicle>
    <vehicle id="veh142" depart="352.16" departLane="best" departPos="random" departSpeed="max">
        <route edges="223632520#2 E3 649040853#1"/>
    </vehicle>
    <vehicle id="veh143" depart="354.64" departLane="best" departPos="random" departSpeed="max">
        <route edges="223632520#1 E1 -223632525#2 -223632525#0"/>
    </vehicle>
    <vehicle id="veh144" depart="357.12" departLane="best" departPos="random" departSpeed="max">
        <route edges="E4 258728090#4 -223632525#2 -223632520#0"/>
    </vehicle>
    <vehicle id="veh145" depart="359.60" departLane="best" departPos="random" departSpeed="max">
        <route edges="-144943776 -649040853#1 -E3 -E2 -649064895 E4 258728090#4 -E1 223632520#2"/>
    </vehicle>
    <vehicle id="veh146" depart="362.08" departLane="best" departPos="random" departSpeed="max">
        <route edges="258728090#4 -E1 223632520#2 E3 -223632517 -258728090#0 671642282"/>
    </vehicle>
    <vehicle id="veh147" depart="364.56" departLane="best" departPos="random" departSpeed="max">
        <route edges="-671642282 258728090#0 223632517 649040853#1 649040853#2"/>
    </vehicle>
    <vehicle id="veh148" depart="367.04" departLane="best" departPos="random" departSpeed="max">
        <route edges="-E4"/>
    </vehicle>
    <vehicle id="veh149" depart="369.52" departLane="best" departPos="random" departSpeed="max">
        <route edges="-223632520#2 E1 -258728090#4 -E4 649064895 E2 E3 -223632517"/>
    </vehicle>
    <vehicle id="veh150" depart="372.00" departLane="best" departPos="random" departSpeed="max">
        <route edges="-144943776 -649040853#1 -E3 -E2 -649064895 E4 258728090#4 -223632525#2"/>
    </vehicle>
    <vehicle id="veh152" depart="376.96" departLane="best" departPos="random" departSpeed="max">
        <route edges="-649040853#1 -E3 -E2 -649064895 649064895 E2 E3 649040853#1"/>
    </vehicle>
    <vehicle id="veh153" depart="379.44" departLane="best" departPos="random" departSpeed="max">
        <route edges="-223632520#1"/>
    </vehicle>
    <vehicle id="veh154" depart="381.92" departLane="best" departPos="random" departSpeed="max">
        <route edges="-649036317#3 223632520#2 E3 -223632517 258728090#1"/>
    </vehicle>
    <vehicle id="veh155" depart="384.40" departLane="best" departPos="random" departSpeed="max">
        <route edges="-E2 -649064895 649064896#1 258728090#3"/>
    </vehicle>
    <vehicle id="veh157" depart="389.36" departLane="best" departPos="random" departSpeed="max">
        <route edges="-649064895 649064895 E2 -223632520#2"/>
    </vehicle>
    <vehicle id="veh158" depart="391.84" departLane="best" departPos="random" departSpeed="max">
        <route edges="223632520#0 -223632525#0"/>
    </vehicle>
    <vehicle id="veh159" depart="394.32" departLane="best" departPos="random" departSpeed="max">
        <route edges="258728090#3 258728090#4 -223632525#2 223632520#1"/>
    </vehicle>
    <vehicle id="veh160" depart="396.80" departLane="best" departPos="random" departSpeed="max">
        <route edges="-649036317#3 E1 -258728090#4"/>
    </vehicle>
    <vehicle id="veh161" depart="399.28" departLane="best" departPos="random" departSpeed="max">
        <route edges="-223632526 -671642282"/>
    </vehicle>
    <vehicle id="veh162" depart="401.76" departLane="best" departPos="random" departSpeed="max">
        <route edges="-258728090#2 -258728090#0"/>
    </vehicle>
    <vehicle id="veh163" depart="404.24" departLane="best" departPos="random" departSpeed="max">
        <route edges="649064896#1 258728090#3 -E4 649064895 E2"/>
    </vehicle>
    <vehicle id="veh164" depart="406.72" departLane="best" departPos="random" departSpeed="max">
        <route edges="223632522 -649040853#1 -E3 -E2 -649064895 649064896#1"/>
    </vehicle>
    <vehicle id="veh165" depart="409.20" departLane="best" departPos="random" departSpeed="max">
        <route edges="-649036317#3 223632520#2 E3 -223632517 -258728090#0 671642282 223632526"/>
    </vehicle>