<?xml version="1.0" encoding="UTF-8"?>

<!-- generated on 2025-05-11 06:25:25.642979 by randomTrips.py v1_22_0+0002-63e50f52594
<configuration>
    <net-file value="E:/licenta/oras-mic/2025-05-08-13-35-40\osm.net.xml"/>
    <output-trip-file value="E:/licenta/oras-mic/2025-05-08-13-35-40\trips.trips.xml"/>
    <route-file value="E:/licenta/oras-mic/2025-05-08-13-35-40\generated_routes\routes_worker3_bf853bd5.rou.xml"/>
    <prefix value="veh"/>
    <trip-attributes value="departLane=&quot;best&quot; departSpeed=&quot;max&quot; departPos=&quot;random&quot;"/>
    <fringe-factor value="2.4"/>
    <seed value="804"/>
    <end value="600.0"/>
    <period value="2.24"/>
</configuration>
-->

<!-- generated on 2025-05-11 06:25:25 by Eclipse SUMO duarouter Version 1.22.0
<duarouterConfiguration xmlns:xsi="http://www.w3.org/2001/XMLSchema-instance" xsi:noNamespaceSchemaLocation="http://sumo.dlr.de/xsd/duarouterConfiguration.xsd">

    <input>
        <net-file value="E:/licenta/oras-mic/2025-05-08-13-35-40\osm.net.xml"/>
        <route-files value="E:/licenta/oras-mic/2025-05-08-13-35-40\trips.trips.xml"/>
    </input>

    <output>
        <output-file value="E:/licenta/oras-mic/2025-05-08-13-35-40\generated_routes\routes_worker3_bf853bd5.rou.xml"/>
        <alternatives-output value="NUL"/>
    </output>

    <time>
        <begin value="0"/>
        <end value="600.0"/>
    </time>

    <report>
        <no-warnings value="true"/>
        <ignore-errors value="true"/>
        <no-step-log value="true"/>
    </report>

</duarouterConfiguration>
-->

<routes xmlns:xsi="http://www.w3.org/2001/XMLSchema-instance" xsi:noNamespaceSchemaLocation="http://sumo.dlr.de/xsd/routes_file.xsd">
    <vehicle id="veh0" depart="0.00" departLane="best" departPos="random" departSpeed="max">
        <route edges="-649036317#3 E1 -258728090#4 -258728090#3 -258728090#2 223632517 -E3"/>
    </vehicle>
    <vehicle id="veh1" depart="2.28" departLane="best" departPos="random" departSpeed="max">
        <route edges="-E3 -E2 -649064895 E4 -258728090#3"/>
    </vehicle>
    <vehicle id="veh2" depart="4.56" departLane="best" departPos="random" departSpeed="max">
        <route edges="-223632520#1 223632525#1 -258728090#4 -258728090#3 -258728090#2"/>
    </vehicle>
    <vehicle id="veh3" depart="6.84" departLane="best" departPos="random" departSpeed="max">
        <route edges="-649040853#1 -E3 -223632520#2 -223632520#1 -223632520#0"/>
    </vehicle>
    <vehicle id="veh4" depart="9.12" departLane="best" departPos="random" departSpeed="max">
        <route edges="258728090#0 223632517 -E3 -223632520#2 -223632520#1"/>
    </vehicle>
    <vehicle id="veh5" depart="11.40" departLane="best" departPos="random" departSpeed="max">
        <route edges="E1 -258728090#4 -E4 649064896#1"/>
    </vehicle>
    <vehicle id="veh6" depart="13.68" departLane="best" departPos="random" departSpeed="max">
        <route edges="-649040853#1 -E3"/>
    </vehicle>
    <vehicle id="veh7" depart="15.96" departLane="best" departPos="random" departSpeed="max">
        <route edges="-223632525#2 223632520#1 223632520#2 E3 -223632517 -258728090#0 671642282"/>
    </vehicle>
    <vehicle id="veh9" depart="20.52" departLane="best" departPos="random" departSpeed="max">
        <route edges="-E2 -649064895 E4 258728090#4 -E1 -223632520#1"/>
    </vehicle>
    <vehicle id="veh10" depart="22.80" departLane="best" departPos="random" departSpeed="max">
        <route edges="E2 -223632520#2 E1"/>
    </vehicle>
    <vehicle id="veh11" depart="25.08" departLane="best" departPos="random" departSpeed="max">
        <route edges="223632525#1 -E1 -223632520#1 -223632520#0"/>
    </vehicle>
    <vehicle id="veh12" depart="27.36" departLane="best" departPos="random" departSpeed="max">
        <route edges="258728090#4 -E1 223632520#2 E3 -223632517 -258728090#0 671642282 223632526"/>
    </vehicle>
    <vehicle id="veh13" depart="29.64" departLane="best" departPos="random" departSpeed="max">
        <route edges="-258728090#3 -649064896#1 649064895 E2 E3 -223632517"/>
    </vehicle>
    <vehicle id="veh15" depart="34.20" departLane="best" departPos="random" departSpeed="max">
        <route edges="-223632525#2 223632520#1 223632520#2 -E2"/>
    </vehicle>
    <vehicle id="veh17" depart="38.76" departLane="best" departPos="random" departSpeed="max">
        <route edges="-144943776 -649040853#1 -223632517 -258728090#0"/>
    </vehicle>
    <vehicle id="veh18" depart="41.04" departLane="best" departPos="random" departSpeed="max">
        <route edges="258728090#0 258728090#1 -649064896#1 649064896#1 -258728090#2"/>
    </vehicle>
    <vehicle id="veh20" depart="45.60" departLane="best" departPos="random" departSpeed="max">
        <route edges="E4 -258728090#3 -258728090#2 -258728090#0 671642282"/>
    </vehicle>
    <vehicle id="veh21" depart="47.88" departLane="best" departPos="random" departSpeed="max">
        <route edges="E1 -258728090#4 -E4 649064895 -649064895"/>
    </vehicle>
    <vehicle id="veh22" depart="50.16" departLane="best" departPos="random" departSpeed="max">
        <route edges="223632520#0 223632520#1 649036317#3"/>
    </vehicle>
    <vehicle id="veh23" depart="52.44" departLane="best" departPos="random" departSpeed="max">
        <route edges="-223632526 -671642282"/>
    </vehicle>
    <vehicle id="veh24" depart="54.72" departLane="best" departPos="random" departSpeed="max">
        <route edges="-258728090#4 -258728090#3 -258728090#2 -258728090#0 671642282 223632526"/>
    </vehicle>
    <vehicle id="veh25" depart="57.00" departLane="best" departPos="random" departSpeed="max">
        <route edges="-671642282 258728090#0 258728090#1 -649064896#1 E4"/>
    </vehicle>
    <vehicle id="veh26" depart="59.28" departLane="best" departPos="random" departSpeed="max">
        <route edges="-223632525#2 223632520#1 223632520#2 -E2 -649064895"/>
    </vehicle>
    <vehicle id="veh27" depart="61.56" departLane="best" departPos="random" departSpeed="max">
        <route edges="-E1 -223632520#1 223632525#1"/>
    </vehicle>
    <vehicle id="veh28" depart="63.84" departLane="best" departPos="random" departSpeed="max">
        <route edges="-649064896#1 649064896#1 -258728090#2 223632517 -E3"/>
    </vehicle>
    <vehicle id="veh29" depart="66.12" departLane="best" departPos="random" departSpeed="max">
        <route edges="-649064896#1 649064896#1 -258728090#2 -258728090#0 671642282 223632526"/>
    </vehicle>
    <vehicle id="veh30" depart="68.40" departLane="best" departPos="random" departSpeed="max">
        <route edges="E1 -258728090#4 -E4 649064895 E2"/>
    </vehicle>
    <vehicle id="veh31" depart="70.68" departLane="best" departPos="random" departSpeed="max">
        <route edges="223632525#0 223632520#1 223632520#2 -E2 -649064895"/>
    </vehicle>
    <vehicle id="veh32" depart="72.96" departLane="best" departPos="random" departSpeed="max">
        <route edges="258728090#3 -E4 649064895"/>
    </vehicle>
    <vehicle id="veh33" depart="75.24" departLane="best" departPos="random" departSpeed="max">
        <route edges="223632522 -649040853#1 -223632517 -258728090#0"/>
    </vehicle>
    <vehicle id="veh34" depart="77.52" departLane="best" departPos="random" departSpeed="max">
        <route edges="E1 -258728090#4 -E4 649064895 E2"/>
    </vehicle>
    <vehicle id="veh35" depart="79.80" departLane="best" departPos="random" departSpeed="max">
        <route edges="-258728090#3 -649064896#1 649064896#1"/>
    </vehicle>
    <vehicle id="veh36" depart="82.08" departLane="best" departPos="random" departSpeed="max">
        <route edges="258728090#3 -E4 649064895 E2 E3"/>
    </vehicle>
    <vehicle id="veh37" depart="84.36" departLane="best" departPos="random" departSpeed="max">
        <route edges="E4 -258728090#3 -258728090#2"/>
    </vehicle>
    <vehicle id="veh38" depart="86.64" departLane="best" departPos="random" departSpeed="max">
        <route edges="258728090#4 -E1 223632520#2 -E2 -649064895 649064895 E2 -223632520#2"/>
    </vehicle>
    <vehicle id="veh39" depart="88.92" departLane="best" departPos="random" departSpeed="max">
        <route edges="-223632520#1 223632525#1 -258728090#4 -E4 649064895 -649064895"/>
    </vehicle>
    <vehicle id="veh40" depart="91.20" departLane="best" departPos="random" departSpeed="max">
        <route edges="-E3 -E2 -649064895 649064896#1 258728090#3"/>
    </vehicle>
    <vehicle id="veh42" depart="95.76" departLane="best" departPos="random" departSpeed="max">
        <route edges="-649064895 649064896#1"/>
    </vehicle>
    <vehicle id="veh43" depart="98.04" departLane="best" departPos="random" departSpeed="max">
        <route edges="-258728090#2 223632517 -E3 -E2 -649064895 E4 258728090#4 -223632525#2"/>
    </vehicle>
    <vehicle id="veh46" depart="104.88" departLane="best" departPos="random" departSpeed="max">
        <route edges="649064896#1 -258728090#2 -258728090#0"/>
    </vehicle>
    <vehicle id="veh48" depart="109.44" departLane="best" departPos="random" departSpeed="max">
        <route edges="-223632526 -671642282 258728090#0 223632517 -E3 -223632520#2 -223632520#1 -223632525#0"/>
    </vehicle>
    <vehicle id="veh49" depart="111.72" departLane="best" departPos="random" departSpeed="max">
        <route edges="E4 -258728090#3 -258728090#2 223632517 -E3"/>
    </vehicle>
    <vehicle id="veh50" depart="114.00" departLane="best" departPos="random" departSpeed="max">
        <route edges="258728090#4 -E1 223632520#2 E3 -223632517 -258728090#0 671642282 223632526"/>
    </vehicle>
    <vehicle id="veh51" depart="116.28" departLane="best" departPos="random" departSpeed="max">
        <route edges="-223632525#2"/>
    </vehicle>
    <vehicle id="veh52" depart="118.56" departLane="best" departPos="random" departSpeed="max">
        <route edges="-223632526 -671642282 258728090#0 258728090#1 -649064896#1"/>
    </vehicle>
    <vehicle id="veh53" depart="120.84" departLane="best" departPos="random" departSpeed="max">
        <route edges="-E2 -649064895 E4 258728090#4 -E1"/>
    </vehicle>
    <vehicle id="veh54" depart="123.12" departLane="best" departPos="random" departSpeed="max">
        <route edges="-671642282 258728090#0 258728090#1 258728090#3 258728090#4 -223632525#2 223632520#1"/>
    </vehicle>
    <vehicle id="veh55" depart="125.40" departLane="best" departPos="random" departSpeed="max">
        <route edges="-671642282 258728090#0"/>
    </vehicle>
    <vehicle id="veh56" depart="127.68" departLane="best" departPos="random" departSpeed="max">
        <route edges="-223632525#2 223632520#1 E1 -258728090#4 -258728090#3 -649064896#1"/>
    </vehicle>
    <vehicle id="veh57" depart="129.96" departLane="best" departPos="random" departSpeed="max">
        <route edges="-144943776 -649040853#1 -E3"/>
    </vehicle>
    <vehicle id="veh58" depart="132.24" departLane="best" departPos="random" departSpeed="max">
        <route edges="-E4 649064896#1 -258728090#2 -258728090#0"/>
    </vehicle>
    <vehicle id="veh59" depart="134.52" departLane="best" departPos="random" departSpeed="max">
        <route edges="649064896#1 258728090#3 258728090#4 -E1 -223632520#1 223632525#1"/>
    </vehicle>
    <vehicle id="veh62" depart="141.36" departLane="best" departPos="random" departSpeed="max">
        <route edges="E3 -223632517 258728090#1 258728090#3"/>
    </vehicle>
    <vehicle id="veh63" depart="143.64" departLane="best" departPos="random" departSpeed="max">
        <route edges="-258728090#4 -258728090#3"/>
    </vehicle>
    <vehicle id="veh64" depart="145.92" departLane="best" departPos="random" departSpeed="max">
        <route edges="-E1 223632520#2 -E2 -649064895 E4"/>
    </vehicle>
    <vehicle id="veh65" depart="148.20" departLane="best" departPos="random" departSpeed="max">
        <route edges="E3 -223632517 258728090#1"/>
    </vehicle>
    <vehicle id="veh66" depart="150.48" departLane="best" departPos="random" departSpeed="max">
        <route edges="-649064896#1 649064895 E2 E3 -223632517 258728090#1"/>
    </vehicle>
    <vehicle id="veh67" depart="152.76" departLane="best" departPos="random" departSpeed="max">
        <route edges="-E1 223632520#2 -E2 -649064895 E4"/>
    </vehicle>
    <vehicle id="veh68" depart="155.04" departLane="best" departPos="random" departSpeed="max">
        <route edges="223632520#0 223632525#1 -258728090#4 -258728090#3 -258728090#2 223632517 -E3"/>
    </vehicle>
    <vehicle id="veh69" depart="157.32" departLane="best" departPos="random" departSpeed="max">
        <route edges="-223632520#1"/>
    </vehicle>
    <vehicle id="veh70" depart="159.60" departLane="best" departPos="random" departSpeed="max">
        <route edges="-E4 649064896#1 -258728090#2 -258728090#0"/>
    </vehicle>
    <vehicle id="veh71" depart="161.88" departLane="best" departPos="random" departSpeed="max">
        <route edges="649064896#1 258728090#3 -E4 649064895 E2 E3 -223632517 258728090#1"/>
    </vehicle>
    <vehicle id="veh72" depart="164.16" departLane="best" departPos="random" departSpeed="max">
        <route edges="-649040853#1"/>
    </vehicle>
    <vehicle id="veh73" depart="166.44" departLane="best" departPos="random" departSpeed="max">
        <route edges="-258728090#4 -E4"/>
    </vehicle>
    <vehicle id="veh75" depart="171.00" departLane="best" departPos="random" departSpeed="max">
        <route edges="223632520#2 -E2 -649064895 E4 258728090#4"/>
    </vehicle>
    <vehicle id="veh76" depart="173.28" departLane="best" departPos="random" departSpeed="max">
        <route edges="-E4 649064895 E2 -223632520#2 E1"/>
    </vehicle>
    <vehicle id="veh77" depart="175.56" departLane="best" departPos="random" departSpeed="max">
        <route edges="-E1 223632520#2 -E2 -649064895 649064895 E2 -223632520#2 E1"/>
    </vehicle>
    <vehicle id="veh78" depart="177.84" departLane="best" departPos="random" departSpeed="max">
        <route edges="-649040853#1 -E3 -E2"/>
    </vehicle>
    <vehicle id="veh79" depart="180.12" departLane="best" departPos="random" departSpeed="max">
        <route edges="-223632520#1 223632525#1 -258728090#4 -258728090#3 -649064896#1"/>
    </vehicle>
    <vehicle id="veh80" depart="182.40" departLane="best" departPos="random" departSpeed="max">
        <route edges="-258728090#3 -649064896#1 E4 258728090#4 -E1"/>
    </vehicle>
    <vehicle id="veh81" depart="184.68" departLane="best" departPos="random" departSpeed="max">
        <route edges="-258728090#3 -649064896#1 649064895 E2 E3"/>
    </vehicle>
    <vehicle id="veh82" depart="186.96" departLane="best" departPos="random" departSpeed="max">
        <route edges="649064895 -649064895 E4 258728090#4 -223632525#2 223632520#1"/>
    </vehicle>
    <vehicle id="veh84" depart="191.52" departLane="best" departPos="random" departSpeed="max">
        <route edges="223632520#1 223632520#2 -E2 -649064895 649064895 E2 -223632520#2"/>
    </vehicle>
    <vehicle id="veh85" depart="193.80" departLane="best" departPos="random" departSpeed="max">
        <route edges="-649040853#1 -E3 -223632520#2 -223632520#1 -223632525#0"/>
    </vehicle>
    <vehicle id="veh86" depart="196.08" departLane="best" departPos="random" departSpeed="max">
        <route edges="-223632526 -671642282 258728090#0 258728090#1 258728090#3 258728090#4 -E1"/>
    </vehicle>
    <vehicle id="veh87" depart="198.36" departLane="best" departPos="random" departSpeed="max">
        <route edges="258728090#0 258728090#1 -649064896#1 649064896#1 -258728090#2 -258728090#0 671642282 223632526"/>
    </vehicle>
    <vehicle id="veh88" depart="200.64" departLane="best" departPos="random" departSpeed="max">
        <route edges="-671642282 258728090#0 258728090#1 258728090#3"/>
    </vehicle>
    <vehicle id="veh89" depart="202.92" departLane="best" departPos="random" departSpeed="max">
        <route edges="-223632517 258728090#1 -649064896#1 649064895 E2"/>
    </vehicle>
    <vehicle id="veh90" depart="205.20" departLane="best" departPos="random" departSpeed="max">
        <route edges="-E1 223632520#2 E3 649040853#1 649040853#2"/>
    </vehicle>
    <vehicle id="veh91" depart="207.48" departLane="best" departPos="random" departSpeed="max">
        <route edges="-223632520#1 223632525#1 -258728090#4 -E4 649064896#1"/>
    </vehicle>
    <vehicle id="veh92" depart="209.76" departLane="best" departPos="random" departSpeed="max">
        <route edges="-258728090#3 -649064896#1 649064895 E2 -223632520#2 E1"/>
    </vehicle>
    <vehicle id="veh93" depart="212.04" departLane="best" departPos="random" departSpeed="max">
        <route edges="223632520#1 223632520#2 -E2 -649064895"/>
    </vehicle>
    <vehicle id="veh94" depart="214.32" departLane="best" departPos="random" departSpeed="max">
        <route edges="258728090#0 258728090#1 -649064896#1 649064896#1 -258728090#2"/>
    </vehicle>
    <vehicle id="veh95" depart="216.60" departLane="best" departPos="random" departSpeed="max">
        <route edges="-649064895 649064896#1"/>
    </vehicle>
    <vehicle id="veh96" depart="218.88" departLane="best" departPos="random" departSpeed="max">
        <route edges="-649064896#1 E4 258728090#4 -223632525#2"/>
    </vehicle>
    <vehicle id="veh97" depart="221.16" departLane="best" departPos="random" departSpeed="max">
        <route edges="-223632525#2 223632520#1 223632520#2 E3 -223632517"/>
    </vehicle>
    <vehicle id="veh98" depart="223.44" departLane="best" departPos="random" departSpeed="max">
        <route edges="223632517 -E3 -223632520#2 -223632520#1 223632525#1"/>
    </vehicle>
    <vehicle id="veh99" depart="225.72" departLane="best" departPos="random" departSpeed="max">
        <route edges="258728090#3 258728090#4 -223632525#2 223632520#1 E1 -258728090#4"/>
    </vehicle>
    <vehicle id="veh100" depart="228.00" departLane="best" departPos="random" departSpeed="max">
        <route edges="223632520#2 -E2 -649064895 E4 -258728090#3"/>
    </vehicle>
    <vehicle id="veh101" depart="230.28" departLane="best" departPos="random" departSpeed="max">
        <route edges="-E3 -E2 -649064895 649064896#1 -258728090#2 223632517"/>
    </vehicle>
    <vehicle id="veh102" depart="232.56" departLane="best" departPos="random" departSpeed="max">
        <route edges="-671642282 258728090#0 223632517 -E3 -E2 -649064895"/>
    </vehicle>
    <vehicle id="veh103" depart="234.84" departLane="best" departPos="random" departSpeed="max">
        <route edges="-223632525#2 223632520#1 E1 -258728090#4 258728090#4 -E1 -223632520#1"/>
    </vehicle>
    <vehicle id="veh104" depart="237.12" departLane="best" departPos="random" departSpeed="max">
        <route edges="258728090#3 -E4 649064896#1 -258728090#2 223632517"/>
    </vehicle>
    <vehicle id="veh105" depart="239.40" departLane="best" departPos="random" departSpeed="max">
        <route edges="-649040853#1 -E3 -E2 -649064895 E4 258728090#4 -223632525#2"/>
    </vehicle>
    <vehicle id="veh107" depart="243.96" departLane="best" departPos="random" departSpeed="max">
        <route edges="-649036317#3 223632520#2 E3"/>
    </vehicle>
    <vehicle id="veh110" depart="250.80" departLane="best" departPos="random" departSpeed="max">
        <route edges="-E2 -649064895 649064895 E2 -223632520#2 E1 -258728090#4"/>
    </vehicle>
    <vehicle id="veh112" depart="255.36" departLane="best" departPos="random" departSpeed="max">
        <route edges="-258728090#4 -258728090#3 -649064896#1 E4"/>
    </vehicle>
    <vehicle id="veh113" depart="257.64" departLane="best" departPos="random" departSpeed="max">
        <route edges="649064895 -649064895 649064896#1 258728090#3"/>
    </vehicle>
    <vehicle id="veh114" depart="259.92" departLane="best" departPos="random" departSpeed="max">
        <route edges="258728090#1 -649064896#1 649064895 E2 -223632520#2 E1 -258728090#4"/>
    </vehicle>
    <vehicle id="veh115" depart="262.20" departLane="best" departPos="random" departSpeed="max">
        <route edges="-223632520#1 223632525#1 -258728090#4 -258728090#3 -258728090#2 223632517 -E3"/>
    </vehicle>
    <vehicle id="veh116" depart="264.48" departLane="best" departPos="random" departSpeed="max">
        <route edges="-223632526 -671642282 258728090#0 223632517 -E3 -223632520#2 E1"/>
    </vehicle>
    <vehicle id="veh117" depart="266.76" departLane="best" departPos="random" departSpeed="max">
        <route edges="E3 -223632517 258728090#1 258728090#3 258728090#4 -E1 649036317#3"/>
    </vehicle>
    <vehicle id="veh118" depart="269.04" departLane="best" departPos="random" departSpeed="max">
        <route edges="-258728090#2 223632517 -E3 -223632520#2 E1"/>
    </vehicle>
    <vehicle id="veh119" depart="271.32" departLane="best" departPos="random" departSpeed="max">
        <route edges="-223632520#1 223632525#1 -258728090#4 258728090#4 -223632525#2 223632520#1"/>
    </vehicle>
    <vehicle id="veh120" depart="273.60" departLane="best" departPos="random" departSpeed="max">
        <route edges="223632517 -E3 -223632520#2 -223632520#1 -223632520#0"/>
    </vehicle>
    <vehicle id="veh121" depart="275.88" departLane="best" departPos="random" departSpeed="max">
        <route edges="-E3 -223632520#2"/>
    </vehicle>
    <vehicle id="veh123" depart="280.44" departLane="best" departPos="random" departSpeed="max">
        <route edges="-258728090#2 223632517 649040853#1 -223632522"/>
    </vehicle>
    <vehicle id="veh124" depart="282.72" departLane="best" departPos="random" departSpeed="max">
        <route edges="223632522 -649040853#1 -E3 -E2 -649064895 649064895 E2"/>
    </vehicle>
    <vehicle id="veh125" depart="285.00" departLane="best" departPos="random" departSpeed="max">
        <route edges="649064895 E2 E3"/>
    </vehicle>
    <vehicle id="veh126" depart="287.28" departLane="best" departPos="random" departSpeed="max">
        <route edges="-E2 -649064895 649064895 E2 E3 649040853#1 649040853#2"/>
    </vehicle>
    <vehicle id="veh128" depart="291.84" departLane="best" departPos="random" departSpeed="max">
        <route edges="E1"/>
    </vehicle>
    <vehicle id="veh129" depart="294.12" departLane="best" departPos="random" departSpeed="max">
        <route edges="649064896#1 258728090#3 258728090#4"/>
    </vehicle>
    <vehicle id="veh131" depart="298.68" departLane="best" departPos="random" departSpeed="max">
        <route edges="-258728090#0"/>
    </vehicle>
    <vehicle id="veh132" depart="300.96" departLane="best" departPos="random" departSpeed="max">
        <route edges="E4 -258728090#3 -258728090#2 223632517"/>
    </vehicle>
    <vehicle id="veh133" depart="303.24" departLane="best" departPos="random" departSpeed="max">
        <route edges="649064895 E2 E3 -223632517 -258728090#0 671642282 223632526"/>
    </vehicle>
    <vehicle id="veh134" depart="305.52" departLane="best" departPos="random" departSpeed="max">
        <route edges="223632525#1 -258728090#4 -E4 649064895 E2 E3 649040853#1 649040853#2"/>
    </vehicle>
    <vehicle id="veh135" depart="307.80" departLane="best" departPos="random" departSpeed="max">
        <route edges="-649064896#1 649064895 E2 -223632520#2 649036317#3"/>
    </vehicle>
    <vehicle id="veh137" depart="312.36" departLane="best" departPos="random" departSpeed="max">
        <route edges="649040853#1 649040853#2"/>
    </vehicle>
    <vehicle id="veh138" depart="314.64" departLane="best" departPos="random" departSpeed="max">
        <route edges="223632525#1 -258728090#4 -E4 649064896#1"/>
    </vehicle>
    <vehicle id="veh139" depart="316.92" departLane="best" departPos="random" departSpeed="max">
        <route edges="-144943776 -649040853#1 -E3 -223632520#2 649036317#3"/>
    </vehicle>
    <vehicle id="veh140" depart="319.20" departLane="best" departPos="random" departSpeed="max">
        <route edges="258728090#1 -649064896#1 E4 -258728090#3"/>
    </vehicle>
    <vehicle id="veh141" depart="321.48" departLane="best" departPos="random" departSpeed="max">
        <route edges="223632517 -E3 -E2 -649064895 649064896#1"/>
    </vehicle>
    <vehicle id="veh143" depart="326.04" departLane="best" departPos="random" departSpeed="max">
        <route edges="-E1 -223632520#1 223632525#1"/>
    </vehicle>
    <vehicle id="veh145" depart="330.60" departLane="best" departPos="random" departSpeed="max">
        <route edges="223632525#0 223632520#1"/>
    </vehicle>
    <vehicle id="veh146" depart="332.88" departLane="best" departPos="random" departSpeed="max">
        <route edges="223632520#2 -E2 -649064895 E4 258728090#4 -E1 -223632520#1"/>
    </vehicle>
    <vehicle id="veh147" depart="335.16" departLane="best" departPos="random" departSpeed="max">
        <route edges="223632525#0 223632525#1 -258728090#4 -E4 649064896#1"/>
    </vehicle>
    <vehicle id="veh148" depart="337.44" departLane="best" departPos="random" departSpeed="max">
        <route edges="-223632520#1 223632525#1 -258728090#4 -E4 649064896#1"/>
    </vehicle>
    <vehicle id="veh149" depart="339.72" departLane="best" departPos="random" departSpeed="max">
        <route edges="-E3 -223632520#2 E1 -258728090#4"/>
    </vehicle>
    <vehicle id="veh150" depart="342.00" departLane="best" departPos="random" departSpeed="max">
        <route edges="223632520#2 -E2 -649064895 649064896#1 -258728090#2 223632517 -E3"/>
    </vehicle>
    <vehicle id="veh151" depart="344.28" departLane="best" departPos="random" departSpeed="max">
        <route edges="-223632525#2 -223632525#0"/>
    </vehicle>
    <vehicle id="veh152" depart="346.56" departLane="best" departPos="random" departSpeed="max">
        <route edges="649064895 E2 -223632520#2 649036317#3"/>
    </vehicle>
    <vehicle id="veh153" depart="348.84" departLane="best" departPos="random" departSpeed="max">
        <route edges="-223632517 -258728090#0 671642282"/>
    </vehicle>
    <vehicle id="veh154" depart="351.12" departLane="best" departPos="random" departSpeed="max">
        <route edges="-223632520#2 E1 -258728090#4 -258728090#3"/>
    </vehicle>
    <vehicle id="veh156" depart="355.68" departLane="best" departPos="random" departSpeed="max">
        <route edges="-649040853#1 -E3 -223632520#2 -223632520#1 -223632520#0"/>
    </vehicle>
    <vehicle id="veh157" depart="357.96" departLane="best" departPos="random" departSpeed="max">
        <route edges="-144943776 -649040853#1 -E3 -223632520#2 -223632520#1 223632525#1"/>
    </vehicle>
    <vehicle id="veh158" depart="360.24" departLane="best" departPos="random" departSpeed="max">
        <route edges="-223632525#2 223632520#1 223632520#2 E3 -223632517 -258728090#0 671642282"/>
    </vehicle>
    <vehicle id="veh160" depart="364.80" departLane="best" departPos="random" departSpeed="max">
        <route edges="-258728090#2 223632517 -E3 -223632520#2 -223632520#1 223632525#1"/>
    </vehicle>
    <vehicle id="veh161" depart="367.08" departLane="best" departPos="random" departSpeed="max">
        <route edges="223632525#1 -258728090#4 -258728090#3 -258728090#2 -258728090#0 671642282 223632526"/>
    </vehicle>
    <vehicle id="veh162" depart="369.36" departLane="best" departPos="random" departSpeed="max">
        <route edges="223632525#0 223632520#1 223632520#2 E3 -223632517 -258728090#0 671642282 223632526"/>
    </vehicle>
    <vehicle id="veh163" depart="371.64" departLane="best" departPos="random" departSpeed="max">
        <route edges="E3 -223632517 258728090#1 -649064896#1"/>
    </vehicle>
    <vehicle id="veh164" depart="373.92" departLane="best" departPos="random" departSpeed="max">
        <route edges="-258728090#3 -258728090#2 -258728090#0 671642282"/>
    </vehicle>
    <vehicle id="veh165" depart="376.20" departLane="best" departPos="random" departSpeed="max">
        <route edges="-E1 223632520#2 E3 -223632517 258728090#1"/>
    </vehicle>
    <vehicle id="veh166" depart="378.48" departLane="best" departPos="random" departSpeed="max">
        <route edges="E4 258728090#4 -E1 -223632520#1 223632525#1"/>
    </vehicle>
    <vehicle id="veh167" depart="380.76" departLane="best" departPos="random" departSpeed="max">
        <route edges="-649064895 649064895 E2 E3"/>
    </vehicle>
    <vehicle id="veh168" depart="383.04" departLane="best" departPos="random" departSpeed="max">
        <route edges="E3 -223632517 258728090#1 258728090#3 258728090#4 -E1 223632520#2 -E2"/>
    </vehicle>
    <vehicle id="veh169" depart="385.32" departLane="best" departPos="random" departSpeed="max">
        <route edges="E3 -223632517 258728090#1 -649064896#1"/>
    </vehicle>
    <vehicle id="veh170" depart="387.60" departLane="best" departPos="random" departSpeed="max">
        <route edges="-E1 -223632520#1 223632525#1 -258728090#4"/>
    </vehicle>
    <vehicle id="veh172" depart="392.16" departLane="best" departPos="random" departSpeed="max">
        <route edges="-649036317#3 E1"/>
    </vehicle>
    <vehicle id="veh173" depart="394.44" departLane="best" departPos="random" departSpeed="max">
        <route edges="E1 -258728090#4 -258728090#3 -258728090#2 223632517"/>
    </vehicle>
    <vehicle id="veh174" depart="396.72" departLane="best" departPos="random" departSpeed="max">
        <route edges="258728090#1 258728090#3 258728090#4 -E1 223632520#2"/>
    </vehicle>
    <vehicle id="veh175" depart="399.00" departLane="best" departPos="random" departSpeed="max">
        <route edges="E3 -223632517 258728090#1 -649064896#1 649064895 E2 -223632520#2 E1 -258728090#4"/>
    </vehicle>
    <vehicle id="veh176" depart="401.28" departLane="best" departPos="random" departSpeed="max">
        <route edges="-223632517 258728090#1 258728090#3 258728090#4 -E1 649036317#3"/>
    </vehicle>
    <vehicle id="veh177" depart="403.56" departLane="best" departPos="random" departSpeed="max">
        <route edges="649064895 E2 E3 649040853#1"/>
    </vehicle>
    <vehicle id="veh178" depart="405.84" departLane="best" departPos="random" departSpeed="max">
        <route edges="-649040853#1 -E3"/>
    </vehicle>