<?xml version="1.0" encoding="UTF-8"?>

<!-- generated on 2025-05-11 06:17:09.048511 by randomTrips.py v1_22_0+0002-63e50f52594
<configuration>
    <net-file value="E:/licenta/oras-mic/2025-05-08-13-35-40\osm.net.xml"/>
    <output-trip-file value="E:/licenta/oras-mic/2025-05-08-13-35-40\trips.trips.xml"/>
    <route-file value="E:/licenta/oras-mic/2025-05-08-13-35-40\generated_routes\routes_worker4_2eb41e2c.rou.xml"/>
    <prefix value="veh"/>
    <trip-attributes value="departLane=&quot;best&quot; departSpeed=&quot;max&quot; departPos=&quot;random&quot;"/>
    <fringe-factor value="1.7"/>
    <seed value="89292"/>
    <end value="600.0"/>
    <period value="2.1"/>
</configuration>
-->

<!-- generated on 2025-05-11 06:17:08 by Eclipse SUMO duarouter Version 1.22.0
<duarouterConfiguration xmlns:xsi="http://www.w3.org/2001/XMLSchema-instance" xsi:noNamespaceSchemaLocation="http://sumo.dlr.de/xsd/duarouterConfiguration.xsd">

    <input>
        <net-file value="E:/licenta/oras-mic/2025-05-08-13-35-40\osm.net.xml"/>
        <route-files value="E:/licenta/oras-mic/2025-05-08-13-35-40\trips.trips.xml"/>
    </input>

    <output>
        <output-file value="E:/licenta/oras-mic/2025-05-08-13-35-40\generated_routes\routes_worker4_2eb41e2c.rou.xml"/>
        <alternatives-output value="NUL"/>
    </output>

    <time>
        <begin value="0"/>
        <end value="600.0"/>
    </time>

    <report>
        <no-warnings value="true"/>
        <ignore-errors value="true"/>
        <no-step-log value="true"/>
    </report>

</duarouterConfiguration>
-->

<routes xmlns:xsi="http://www.w3.org/2001/XMLSchema-instance" xsi:noNamespaceSchemaLocation="http://sumo.dlr.de/xsd/routes_file.xsd">
    <vehicle id="veh0" depart="0.00" departLane="best" departPos="random" departSpeed="max">
        <route edges="-649064895 649064895"/>
    </vehicle>
    <vehicle id="veh1" depart="2.10" departLane="best" departPos="random" departSpeed="max">
        <route edges="-223632526 -671642282 258728090#0 223632517 -E3 -223632520#2"/>
    </vehicle>
    <vehicle id="veh2" depart="4.20" departLane="best" departPos="random" departSpeed="max">
        <route edges="-258728090#4 -258728090#3 -258728090#2"/>
    </vehicle>
    <vehicle id="veh3" depart="6.30" departLane="best" departPos="random" departSpeed="max">
        <route edges="-258728090#2 223632517 -E3 -E2 -649064895 649064895 E2 E3 -223632517"/>
    </vehicle>
    <vehicle id="veh4" depart="8.40" departLane="best" departPos="random" departSpeed="max">
        <route edges="-223632526 -671642282 258728090#0 223632517 -E3 -E2"/>
    </vehicle>
    <vehicle id="veh5" depart="10.50" departLane="best" departPos="random" departSpeed="max">
        <route edges="-144943776 -649040853#1 -E3 -E2 -649064895 E4 258728090#4 -E1 223632520#2"/>
    </vehicle>
    <vehicle id="veh6" depart="12.60" departLane="best" departPos="random" departSpeed="max">
        <route edges="223632522 -649040853#1 -E3 -E2"/>
    </vehicle>
    <vehicle id="veh7" depart="14.70" departLane="best" departPos="random" departSpeed="max">
        <route edges="258728090#0 258728090#1"/>
    </vehicle>
    <vehicle id="veh9" depart="18.90" departLane="best" departPos="random" departSpeed="max">
        <route edges="-E1 223632520#2 E3 -223632517 -258728090#0 671642282 223632526"/>
    </vehicle>
    <vehicle id="veh10" depart="21.00" departLane="best" departPos="random" departSpeed="max">
        <route edges="223632525#0 223632520#1 223632520#2 E3 -223632517"/>
    </vehicle>
    <vehicle id="veh11" depart="23.10" departLane="best" departPos="random" departSpeed="max">
        <route edges="E3 -223632517 258728090#1 -649064896#1 649064895 -649064895"/>
    </vehicle>
    <vehicle id="veh12" depart="25.20" departLane="best" departPos="random" departSpeed="max">
        <route edges="258728090#3 -258728090#3"/>
    </vehicle>
    <vehicle id="veh13" depart="27.30" departLane="best" departPos="random" departSpeed="max">
        <route edges="223632525#0 223632525#1 -258728090#4 -E4 649064896#1 258728090#3"/>
    </vehicle>
    <vehicle id="veh14" depart="29.40" departLane="best" departPos="random" departSpeed="max">
        <route edges="223632517 -E3 -223632520#2 -223632520#1 -223632525#0"/>
    </vehicle>
    <vehicle id="veh15" depart="31.50" departLane="best" departPos="random" departSpeed="max">
        <route edges="-671642282 258728090#0 223632517 -E3 -223632520#2"/>
    </vehicle>
    <vehicle id="veh16" depart="33.60" departLane="best" departPos="random" departSpeed="max">
        <route edges="-223632520#2 E1 -223632525#2 223632520#1 223632520#2 -E2"/>
    </vehicle>
    <vehicle id="veh17" depart="35.70" departLane="best" departPos="random" departSpeed="max">
        <route edges="223632525#0 223632520#1 E1 -223632525#2 -223632525#0"/>
    </vehicle>
    <vehicle id="veh18" depart="37.80" departLane="best" departPos="random" departSpeed="max">
        <route edges="223632525#1 -258728090#4 -258728090#3 -258728090#2 223632517"/>
    </vehicle>
    <vehicle id="veh20" depart="42.00" departLane="best" departPos="random" departSpeed="max">
        <route edges="223632525#1 -258728090#4 258728090#4 -223632525#2"/>
    </vehicle>
    <vehicle id="veh21" depart="44.10" departLane="best" departPos="random" departSpeed="max">
        <route edges="E2 -223632520#2 -223632520#1 223632525#1 -E1"/>
    </vehicle>
    <vehicle id="veh22" depart="46.20" departLane="best" departPos="random" departSpeed="max">
        <route edges="223632517 -E3 -E2 -649064895 E4"/>
    </vehicle>
    <vehicle id="veh23" depart="48.30" departLane="best" departPos="random" departSpeed="max">
        <route edges="223632525#0 223632520#1 E1 -223632525#2"/>
    </vehicle>
    <vehicle id="veh24" depart="50.40" departLane="best" departPos="random" departSpeed="max">
        <route edges="-223632517 258728090#1"/>
    </vehicle>
    <vehicle id="veh25" depart="52.50" departLane="best" departPos="random" departSpeed="max">
        <route edges="-223632526 -671642282 258728090#0 223632517 -E3 -223632520#2 -223632520#1 223632525#1"/>
    </vehicle>
    <vehicle id="veh26" depart="54.60" departLane="best" departPos="random" departSpeed="max">
        <route edges="223632525#1 -258728090#4 258728090#4 -223632525#2 223632520#1"/>
    </vehicle>
    <vehicle id="veh27" depart="56.70" departLane="best" departPos="random" departSpeed="max">
        <route edges="-258728090#3"/>
    </vehicle>
    <vehicle id="veh28" depart="58.80" departLane="best" departPos="random" departSpeed="max">
        <route edges="-E4"/>
    </vehicle>
    <vehicle id="veh29" depart="60.90" departLane="best" departPos="random" departSpeed="max">
        <route edges="-258728090#2 223632517 -E3 -E2 -649064895 E4 -258728090#3"/>
    </vehicle>
    <vehicle id="veh30" depart="63.00" departLane="best" departPos="random" departSpeed="max">
        <route edges="223632525#0 223632525#1 -258728090#4 -258728090#3 -258728090#2 223632517"/>
    </vehicle>
    <vehicle id="veh31" depart="65.10" departLane="best" departPos="random" departSpeed="max">
        <route edges="223632522 -649040853#1 -E3 -223632520#2 -223632520#1 223632525#1"/>
    </vehicle>
    <vehicle id="veh32" depart="67.20" departLane="best" departPos="random" departSpeed="max">
        <route edges="-649040853#1 -E3 -223632520#2 -223632520#1 223632525#1"/>
    </vehicle>
    <vehicle id="veh34" depart="71.40" departLane="best" departPos="random" departSpeed="max">
        <route edges="-223632520#1 223632525#1 -258728090#4 -E4 649064895 E2 E3"/>
    </vehicle>
    <vehicle id="veh35" depart="73.50" departLane="best" departPos="random" departSpeed="max">
        <route edges="258728090#0 223632517 -E3 -E2 -649064895"/>
    </vehicle>
    <vehicle id="veh36" depart="75.60" departLane="best" departPos="random" departSpeed="max">
        <route edges="-E2 -649064895 649064895 E2 E3"/>
    </vehicle>
    <vehicle id="veh37" depart="77.70" departLane="best" departPos="random" departSpeed="max">
        <route edges="E2"/>
    </vehicle>
    <vehicle id="veh38" depart="79.80" departLane="best" departPos="random" departSpeed="max">
        <route edges="223632525#1 -258728090#4 -E4 649064895 -649064895"/>
    </vehicle>
    <vehicle id="veh39" depart="81.90" departLane="best" departPos="random" departSpeed="max">
        <route edges="-649064895 649064895 E2 E3 649040853#1"/>
    </vehicle>
    <vehicle id="veh40" depart="84.00" departLane="best" departPos="random" departSpeed="max">
        <route edges="258728090#1 -649064896#1 649064895 E2 E3 -223632517"/>
    </vehicle>
    <vehicle id="veh41" depart="86.10" departLane="best" departPos="random" departSpeed="max">
        <route edges="223632525#0 223632525#1 -258728090#4 -258728090#3 -258728090#2"/>
    </vehicle>
    <vehicle id="veh42" depart="88.20" departLane="best" departPos="random" departSpeed="max">
        <route edges="E3 -223632517 258728090#1 -649064896#1 E4 -258728090#3"/>
    </vehicle>
    <vehicle id="veh43" depart="90.30" departLane="best" departPos="random" departSpeed="max">
        <route edges="649064895 E2 -223632520#2 -223632520#1 -223632525#0"/>
    </vehicle>
    <vehicle id="veh45" depart="94.50" departLane="best" departPos="random" departSpeed="max">
        <route edges="258728090#3 -E4 649064895 E2 E3 649040853#1 649040853#2"/>
    </vehicle>
    <vehicle id="veh46" depart="96.60" departLane="best" departPos="random" departSpeed="max">
        <route edges="-E4 649064896#1 258728090#3"/>
    </vehicle>
    <vehicle id="veh47" depart="98.70" departLane="best" departPos="random" departSpeed="max">
        <route edges="-258728090#4 -E4 649064895 -649064895"/>
    </vehicle>
    <vehicle id="veh49" depart="102.90" departLane="best" departPos="random" departSpeed="max">
        <route edges="223632520#0 223632520#1 E1 -223632525#2 -223632520#0"/>
    </vehicle>
    <vehicle id="veh50" depart="105.00" departLane="best" departPos="random" departSpeed="max">
        <route edges="-223632526 -671642282 258728090#0 258728090#1 -649064896#1 649064896#1"/>
    </vehicle>
    <vehicle id="veh51" depart="107.10" departLane="best" departPos="random" departSpeed="max">
        <route edges="223632520#2 -E2 -649064895 E4 258728090#4 -E1"/>
    </vehicle>
    <vehicle id="veh52" depart="109.20" departLane="best" departPos="random" departSpeed="max">
        <route edges="223632520#1 223632520#2 E3 649040853#1 -223632522"/>
    </vehicle>
    <vehicle id="veh53" depart="111.30" departLane="best" departPos="random" departSpeed="max">
        <route edges="-258728090#4 258728090#4 -E1 -223632520#1 223632525#1"/>
    </vehicle>
    <vehicle id="veh54" depart="113.40" departLane="best" departPos="random" departSpeed="max">
        <route edges="-649064895 649064895 E2 E3 649040853#1 649040853#2"/>
    </vehicle>
    <vehicle id="veh55" depart="115.50" departLane="best" departPos="random" departSpeed="max">
        <route edges="-258728090#3 -649064896#1 649064895 E2"/>
    </vehicle>
    <vehicle id="veh57" depart="119.70" departLane="best" departPos="random" departSpeed="max">
        <route edges="-223632517 258728090#1 -649064896#1 649064896#1 -258728090#2 223632517 -E3"/>
    </vehicle>
    <vehicle id="veh59" depart="123.90" departLane="best" departPos="random" departSpeed="max">
        <route edges="-258728090#4 -258728090#3"/>
    </vehicle>
    <vehicle id="veh60" depart="126.00" departLane="best" departPos="random" departSpeed="max">
        <route edges="-E4 649064896#1 258728090#3 258728090#4 -223632525#2"/>
    </vehicle>
    <vehicle id="veh61" depart="128.10" departLane="best" departPos="random" departSpeed="max">
        <route edges="258728090#3 -E4 649064896#1 -258728090#2 -258728090#0 671642282"/>
    </vehicle>
    <vehicle id="veh64" depart="134.40" departLane="best" departPos="random" departSpeed="max">
        <route edges="258728090#3 -E4 649064895 E2 E3 649040853#1 649040853#2"/>
    </vehicle>
    <vehicle id="veh66" depart="138.60" departLane="best" departPos="random" departSpeed="max">
        <route edges="-649036317#3 223632520#2 E3 649040853#1 -223632522"/>
    </vehicle>
    <vehicle id="veh67" depart="140.70" departLane="best" departPos="random" departSpeed="max">
        <route edges="223632520#0 223632520#1 E1 -223632525#2"/>
    </vehicle>
    <vehicle id="veh68" depart="142.80" departLane="best" departPos="random" departSpeed="max">
        <route edges="-E2 -649064895 649064896#1 -258728090#2 -258728090#0"/>
    </vehicle>
    <vehicle id="veh69" depart="144.90" departLane="best" departPos="random" departSpeed="max">
        <route edges="223632520#0 -223632525#0"/>
    </vehicle>
    <vehicle id="veh70" depart="147.00" departLane="best" departPos="random" departSpeed="max">
        <route edges="-144943776 -649040853#1 -E3 -E2 -649064895 E4 258728090#4 -E1"/>
    </vehicle>
    <vehicle id="veh71" depart="149.10" departLane="best" departPos="random" departSpeed="max">
        <route edges="-223632526 -671642282 258728090#0 223632517 -E3 -223632520#2 -223632520#1 -223632520#0"/>
    </vehicle>
    <vehicle id="veh72" depart="151.20" departLane="best" departPos="random" departSpeed="max">
        <route edges="223632520#1 223632520#2 E3 649040853#1 649040853#2"/>
    </vehicle>
    <vehicle id="veh74" depart="155.40" departLane="best" departPos="random" departSpeed="max">
        <route edges="223632520#2 E3"/>
    </vehicle>
    <vehicle id="veh75" depart="157.50" departLane="best" departPos="random" departSpeed="max">
        <route edges="-258728090#2 223632517 -E3 -E2"/>
    </vehicle>
    <vehicle id="veh76" depart="159.60" departLane="best" departPos="random" departSpeed="max">
        <route edges="-223632525#2 223632520#1 223632520#2 E3 -223632517 258728090#1"/>
    </vehicle>
    <vehicle id="veh77" depart="161.70" departLane="best" departPos="random" departSpeed="max">
        <route edges="-144943776 -649040853#1 -E3 -223632520#2 -223632520#1 -223632520#0"/>
    </vehicle>
    <vehicle id="veh79" depart="165.90" departLane="best" departPos="random" departSpeed="max">
        <route edges="223632520#1 E1"/>
    </vehicle>
    <vehicle id="veh81" depart="170.10" departLane="best" departPos="random" departSpeed="max">
        <route edges="649064896#1 258728090#3 258728090#4"/>
    </vehicle>
    <vehicle id="veh82" depart="172.20" departLane="best" departPos="random" departSpeed="max">
        <route edges="223632525#0 223632525#1 -258728090#4"/>
    </vehicle>
    <vehicle id="veh83" depart="174.30" departLane="best" departPos="random" departSpeed="max">
        <route edges="223632520#0 223632520#1 E1"/>
    </vehicle>
    <vehicle id="veh84" depart="176.40" departLane="best" departPos="random" departSpeed="max">
        <route edges="223632522 -649040853#1 -E3 -E2 -649064895 E4 258728090#4 -223632525#2"/>
    </vehicle>
    <vehicle id="veh85" depart="178.50" departLane="best" departPos="random" departSpeed="max">
        <route edges="-671642282 258728090#0 258728090#1 -649064896#1 E4 -258728090#3"/>
    </vehicle>
    <vehicle id="veh86" depart="180.60" departLane="best" departPos="random" departSpeed="max">
        <route edges="649064896#1 -258728090#2 -258728090#0 671642282 223632526"/>
    </vehicle>
    <vehicle id="veh87" depart="182.70" departLane="best" departPos="random" departSpeed="max">
        <route edges="-258728090#3 -649064896#1 649064895 E2 E3 649040853#1 649040853#2"/>
    </vehicle>
    <vehicle id="veh88" depart="184.80" departLane="best" departPos="random" departSpeed="max">
        <route edges="-144943776 -649040853#1 -E3 -223632520#2 E1"/>
    </vehicle>
    <vehicle id="veh89" depart="186.90" departLane="best" departPos="random" departSpeed="max">
        <route edges="223632525#1 -E1 -223632520#1 -223632520#0"/>
    </vehicle>
    <vehicle id="veh90" depart="189.00" departLane="best" departPos="random" departSpeed="max">
        <route edges="223632525#1 -258728090#4 -E4 649064895 E2 E3 -223632517"/>
    </vehicle>
    <vehicle id="veh91" depart="191.10" departLane="best" departPos="random" departSpeed="max">
        <route edges="-671642282 258728090#0 223632517"/>
    </vehicle>
    <vehicle id="veh92" depart="193.20" departLane="best" departPos="random" departSpeed="max">
        <route edges="223632522 -649040853#1 -E3 -E2 -649064895 649064896#1"/>
    </vehicle>
    <vehicle id="veh93" depart="195.30" departLane="best" departPos="random" departSpeed="max">
        <route edges="-649036317#3 223632520#2 -E2 -649064895 E4"/>
    </vehicle>
    <vehicle id="veh94" depart="197.40" departLane="best" departPos="random" departSpeed="max">
        <route edges="258728090#1 -649064896#1 649064896#1 -258728090#2"/>
    </vehicle>
    <vehicle id="veh95" depart="199.50" departLane="best" departPos="random" departSpeed="max">
        <route edges="649064895 E2 E3 649040853#1 649040853#2"/>
    </vehicle>
    <vehicle id="veh96" depart="201.60" departLane="best" departPos="random" departSpeed="max">
        <route edges="258728090#4 -E1 -223632520#1"/>
    </vehicle>
    <vehicle id="veh97" depart="203.70" departLane="best" departPos="random" departSpeed="max">
        <route edges="-649040853#1 -E3 -223632520#2"/>
    </vehicle>
    <vehicle id="veh98" depart="205.80" departLane="best" departPos="random" departSpeed="max">
        <route edges="-649040853#1 -223632517 -258728090#0 671642282 223632526"/>
    </vehicle>
    <vehicle id="veh99" depart="207.90" departLane="best" departPos="random" departSpeed="max">
        <route edges="E3 649040853#1 -223632522"/>
    </vehicle>
    <vehicle id="veh100" depart="210.00" departLane="best" departPos="random" departSpeed="max">
        <route edges="-223632526 -671642282 258728090#0 258728090#1 -649064896#1 649064895 E2 E3"/>
    </vehicle>
    <vehicle id="veh101" depart="212.10" departLane="best" departPos="random" departSpeed="max">
        <route edges="223632520#0 223632520#1"/>
    </vehicle>
    <vehicle id="veh102" depart="214.20" departLane="best" departPos="random" departSpeed="max">
        <route edges="-649036317#3 E1 -223632525#2 223632520#1 649036317#3"/>
    </vehicle>
    <vehicle id="veh103" depart="216.30" departLane="best" departPos="random" departSpeed="max">
        <route edges="-223632517 -258728090#0 671642282 223632526"/>
    </vehicle>
    <vehicle id="veh104" depart="218.40" departLane="best" departPos="random" departSpeed="max">
        <route edges="-223632525#2 -223632520#0"/>
    </vehicle>
    <vehicle id="veh105" depart="220.50" departLane="best" departPos="random" departSpeed="max">
        <route edges="258728090#1 -649064896#1 649064895 E2 E3 649040853#1 649040853#2"/>
    </vehicle>
    <vehicle id="veh107" depart="224.70" departLane="best" departPos="random" departSpeed="max">
        <route edges="223632522 -649040853#1 -E3 -E2 -649064895 649064895 E2 E3"/>
    </vehicle>
    <vehicle id="veh108" depart="226.80" departLane="best" departPos="random" departSpeed="max">
        <route edges="223632525#0 223632520#1 223632520#2 E3 649040853#1 -223632522"/>
    </vehicle>
    <vehicle id="veh110" depart="231.00" departLane="best" departPos="random" departSpeed="max">
        <route edges="-649064895 E4 258728090#4 -E1 649036317#3"/>
    </vehicle>
    <vehicle id="veh111" depart="233.10" departLane="best" departPos="random" departSpeed="max">
        <route edges="-223632520#2 E1 -258728090#4 -258728090#3 -258728090#2 223632517"/>
    </vehicle>
    <vehicle id="veh112" depart="235.20" departLane="best" departPos="random" departSpeed="max">
        <route edges="258728090#0 223632517 -E3 -223632520#2 -223632520#1 -223632525#0"/>
    </vehicle>
    <vehicle id="veh113" depart="237.30" departLane="best" departPos="random" departSpeed="max">
        <route edges="-223632526 -671642282 258728090#0 223632517 -E3 -223632520#2"/>
    </vehicle>
    <vehicle id="veh115" depart="241.50" departLane="best" departPos="random" departSpeed="max">
        <route edges="-258728090#3 -649064896#1 649064895 E2 E3 649040853#1 -223632522"/>
    </vehicle>
    <vehicle id="veh116" depart="243.60" departLane="best" departPos="random" departSpeed="max">
        <route edges="649064895 E2 -223632520#2 -223632520#1 -223632525#0"/>
    </vehicle>
    <vehicle id="veh117" depart="245.70" departLane="best" departPos="random" departSpeed="max">
        <route edges="223632525#0 223632525#1 -258728090#4 -258728090#3"/>
    </vehicle>
    <vehicle id="veh118" depart="247.80" departLane="best" departPos="random" departSpeed="max">
        <route edges="-649036317#3 E1 -258728090#4 -258728090#3 -258728090#2"/>
    </vehicle>
    <vehicle id="veh119" depart="249.90" departLane="best" departPos="random" departSpeed="max">
        <route edges="223632522 -649040853#1 -E3 -223632520#2 -223632520#1 -223632520#0"/>
    </vehicle>
    <vehicle id="veh121" depart="254.10" departLane="best" departPos="random" departSpeed="max">
        <route edges="223632522 -649040853#1 -223632517 -258728090#0 671642282 223632526"/>
    </vehicle>
    <vehicle id="veh122" depart="256.20" departLane="best" departPos="random" departSpeed="max">
        <route edges="223632525#1 -258728090#4 -258728090#3 -258728090#2 -258728090#0 671642282 223632526"/>
    </vehicle>
    <vehicle id="veh123" depart="258.30" departLane="best" departPos="random" departSpeed="max">
        <route edges="-E1 223632520#2 -E2 -649064895 649064896#1 -258728090#2"/>
    </vehicle>
    <vehicle id="veh124" depart="260.40" departLane="best" departPos="random" departSpeed="max">
        <route edges="223632525#0 223632520#1 E1 -223632525#2"/>
    </vehicle>
    <vehicle id="veh126" depart="264.60" departLane="best" departPos="random" departSpeed="max">
        <route edges="649064895 E2 E3 649040853#1"/>
    </vehicle>
    <vehicle id="veh127" depart="266.70" departLane="best" departPos="random" departSpeed="max">
        <route edges="258728090#1 -649064896#1 649064896#1 -258728090#2"/>
    </vehicle>
    <vehicle id="veh129" depart="270.90" departLane="best" departPos="random" departSpeed="max">
        <route edges="-E3 -223632520#2 649036317#3"/>
    </vehicle>
    <vehicle id="veh130" depart="273.00" departLane="best" departPos="random" departSpeed="max">
        <route edges="223632517 -E3 -E2 -649064895 649064896#1 -258728090#2 -258728090#0 671642282 223632526"/>
    </vehicle>
    <vehicle id="veh131" depart="275.10" departLane="best" departPos="random" departSpeed="max">
        <route edges="649064895 E2 -223632520#2 -223632520#1 223632525#1"/>
    </vehicle>
    <vehicle id="veh134" depart="281.40" departLane="best" departPos="random" departSpeed="max">
        <route edges="223632522 -649040853#1 -E3 -223632520#2 -223632520#1 -223632525#0"/>
    </vehicle>
    <vehicle id="veh135" depart="283.50" departLane="best" departPos="random" departSpeed="max">
        <route edges="-223632517 258728090#1 258728090#3 258728090#4 -223632525#2 -223632525#0"/>
    </vehicle>
    <vehicle id="veh137" depart="287.70" departLane="best" departPos="random" departSpeed="max">
        <route edges="-671642282 258728090#0"/>
    </vehicle>
    <vehicle id="veh139" depart="291.90" departLane="best" departPos="random" departSpeed="max">
        <route edges="223632520#0 223632525#1 -258728090#4 -258728090#3 -258728090#2 223632517"/>
    </vehicle>
    <vehicle id="veh140" depart="294.00" departLane="best" departPos="random" departSpeed="max">
        <route edges="-649064896#1 649064896#1 -258728090#2 223632517"/>
    </vehicle>
    <vehicle id="veh141" depart="296.10" departLane="best" departPos="random" departSpeed="max">
        <route edges="223632520#1 223632520#2 -E2 -649064895 E4"/>
    </vehicle>
    <vehicle id="veh142" depart="298.20" departLane="best" departPos="random" departSpeed="max">
        <route edges="-223632526 -671642282 258728090#0 258728090#1 -649064896#1 E4"/>
    </vehicle>
    <vehicle id="veh143" depart="300.30" departLane="best" departPos="random" departSpeed="max">
        <route edges="-223632520#2 E1 -258728090#4 -258728090#3 -649064896#1"/>
    </vehicle>
    <vehicle id="veh144" depart="302.40" departLane="best" departPos="random" departSpeed="max">
        <route edges="223632525#1 -258728090#4 258728090#4 -223632525#2 223632520#1 E1"/>
    </vehicle>
    <vehicle id="veh145" depart="304.50" departLane="best" departPos="random" departSpeed="max">
        <route edges="-E4 649064895 E2 -223632520#2 E1"/>
    </vehicle>
    <vehicle id="veh146" depart="306.60" departLane="best" departPos="random" departSpeed="max">
        <route edges="223632517 -E3 -223632520#2 -223632520#1"/>
    </vehicle>
    <vehicle id="veh147" depart="308.70" departLane="best" departPos="random" departSpeed="max">
        <route edges="223632522 649040853#2"/>
    </vehicle>
    <vehicle id="veh149" depart="312.90" departLane="best" departPos="random" departSpeed="max">
        <route edges="-258728090#3 -649064896#1 E4 258728090#4"/>
    </vehicle>
    <vehicle id="veh150" depart="315.00" departLane="best" departPos="random" departSpeed="max">
        <route edges="258728090#3 -E4 649064896#1"/>
    </vehicle>
    <vehicle id="veh151" depart="317.10" departLane="best" departPos="random" departSpeed="max">
        <route edges="-223632520#1 223632525#1 -258728090#4 -E4 649064895 E2 E3 -223632517 258728090#1"/>
    </vehicle>
    <vehicle id="veh152" depart="319.20" departLane="best" departPos="random" departSpeed="max">
        <route edges="-223632526 -671642282 258728090#0 258728090#1 258728090#3"/>
    </vehicle>
    <vehicle id="veh153" depart="321.30" departLane="best" departPos="random" departSpeed="max">
        <route edges="649064895 -649064895"/>
    </vehicle>
    <vehicle id="veh154" depart="323.40" departLane="best" departPos="random" departSpeed="max">
        <route edges="649064895 -649064895 E4 258728090#4 -E1"/>
    </vehicle>
    <vehicle id="veh155" depart="325.50" departLane="best" departPos="random" departSpeed="max">
        <route edges="-223632517 258728090#1 258728090#3 258728090#4 -223632525#2 -223632525#0"/>
    </vehicle>
    <vehicle id="veh156" depart="327.60" departLane="best" departPos="random" departSpeed="max">
        <route edges="-223632526 -671642282 258728090#0 258728090#1 -649064896#1 649064896#1"/>
    </vehicle>
    <vehicle id="veh157" depart="329.70" departLane="best" departPos="random" departSpeed="max">
        <route edges="E1 -258728090#4 -258728090#3 -649064896#1"/>
    </vehicle>
    <vehicle id="veh158" depart="331.80" departLane="best" departPos="random" departSpeed="max">
        <route edges="-223632526 -671642282 258728090#0 258728090#1 -649064896#1 649064896#1 -258728090#2 -258728090#0"/>
    </vehicle>
    <vehicle id="veh160" depart="336.00" departLane="best" departPos="random" departSpeed="max">
        <route edges="-E1 223632520#2 E3 -223632517 -258728090#0"/>
    </vehicle>
    <vehicle id="veh161" depart="338.10" departLane="best" departPos="random" departSpeed="max">
        <route edges="-671642282 258728090#0 223632517 -E3 -223632520#2 E1"/>
    </vehicle>
    <vehicle id="veh162" depart="340.20" departLane="best" departPos="random" departSpeed="max">
        <route edges="258728090#1 -649064896#1 649064895 E2 E3 -223632517"/>
    </vehicle>
    <vehicle id="veh163" depart="342.30" departLane="best" departPos="random" departSpeed="max">
        <route edges="-649040853#1 -E3 -E2 -649064895 E4 -258728090#3"/>
    </vehicle>
    <vehicle id="veh164" depart="344.40" departLane="best" departPos="random" departSpeed="max">
        <route edges="258728090#0"/>
    </vehicle>
    <vehicle id="veh165" depart="346.50" departLane="best" departPos="random" departSpeed="max">
        <route edges="649064896#1 258728090#3 -E4 649064895 E2 E3 -223632517 258728090#1"/>
    </vehicle>
    <vehicle id="veh166" depart="348.60" departLane="best" departPos="random" departSpeed="max">
        <route edges="258728090#4 -E1 223632520#2 E3 -223632517 -258728090#0 671642282 223632526"/>
    </vehicle>
    <vehicle id="veh167" depart="350.70" departLane="best" departPos="random" departSpeed="max">
        <route edges="258728090#1 258728090#3 -E4"/>
    </vehicle>
    <vehicle id="veh168" depart="352.80" departLane="best" departPos="random" departSpeed="max">
        <route edges="-E4 649064895 E2 -223632520#2 649036317#3"/>
    </vehicle>
    <vehicle id="veh169" depart="354.90" departLane="best" departPos="random" departSpeed="max">
        <route edges="-649040853#1 -E3 -223632520#2 -223632520#1 -223632525#0"/>
    </vehicle>
    <vehicle id="veh170" depart="357.00" departLane="best" departPos="random" departSpeed="max">
        <route edges="E4 258728090#4 -E1 649036317#3"/>
    </vehicle>
    <vehicle id="veh171" depart="359.10" departLane="best" departPos="random" departSpeed="max">
        <route edges="223632520#0 223632520#1 223632520#2"/>
    </vehicle>
    <vehicle id="veh173" depart="363.30" departLane="best" departPos="random" departSpeed="max">
        <route edges="223632520#1 E1 -258728090#4"/>
    </vehicle>
    <vehicle id="veh174" depart="365.40" departLane="best" departPos="random" departSpeed="max">
        <route edges="258728090#1 258728090#3 258728090#4 -E1 -223632520#1"/>
    </vehicle>
    <vehicle id="veh175" depart="367.50" departLane="best" departPos="random" departSpeed="max">
        <route edges="-E3 -E2 -649064895 649064896#1 -258728090#2 -258728090#0 671642282"/>
    </vehicle>
    <vehicle id="veh176" depart="369.60" departLane="best" departPos="random" departSpeed="max">
        <route edges="223632522 -649040853#1 -E3 -E2 -649064895 E4 258728090#4"/>
    </vehicle>
    <vehicle id="veh177" depart="371.70" departLane="best" departPos="random" departSpeed="max">
        <route edges="223632520#2 -E2 -649064895 E4 258728090#4 -E1 649036317#3"/>
    </vehicle>