<?xml version="1.0" encoding="UTF-8"?>

<!-- generated on 2025-05-11 08:01:55.740743 by randomTrips.py v1_22_0+0002-63e50f52594
<configuration>
    <net-file value="E:/licenta/oras-mic/2025-05-08-13-35-40\osm.net.xml"/>
    <output-trip-file value="E:/licenta/oras-mic/2025-05-08-13-35-40\trips.trips.xml"/>
    <route-file value="E:/licenta/oras-mic/2025-05-08-13-35-40\generated_routes\routes_worker1_a05421e6.rou.xml"/>
    <prefix value="veh"/>
    <trip-attributes value="departLane=&quot;best&quot; departSpeed=&quot;max&quot; departPos=&quot;random&quot;"/>
    <fringe-factor value="2.6"/>
    <seed value="21609"/>
    <end value="600.0"/>
    <period value="1.9"/>
</configuration>
-->

<!-- generated on 2025-05-11 08:01:55 by Eclipse SUMO duarouter Version 1.22.0
<duarouterConfiguration xmlns:xsi="http://www.w3.org/2001/XMLSchema-instance" xsi:noNamespaceSchemaLocation="http://sumo.dlr.de/xsd/duarouterConfiguration.xsd">

    <input>
        <net-file value="E:/licenta/oras-mic/2025-05-08-13-35-40\osm.net.xml"/>
        <route-files value="E:/licenta/oras-mic/2025-05-08-13-35-40\trips.trips.xml"/>
    </input>

    <output>
        <output-file value="E:/licenta/oras-mic/2025-05-08-13-35-40\generated_routes\routes_worker1_a05421e6.rou.xml"/>
        <alternatives-output value="NUL"/>
    </output>

    <time>
        <begin value="0"/>
        <end value="600.0"/>
    </time>

    <report>
        <no-warnings value="true"/>
        <ignore-errors value="true"/>
        <no-step-log value="true"/>
    </report>

</duarouterConfiguration>
-->

<routes xmlns:xsi="http://www.w3.org/2001/XMLSchema-instance" xsi:noNamespaceSchemaLocation="http://sumo.dlr.de/xsd/routes_file.xsd">
    <vehicle id="veh0" depart="0.00" departLane="best" departPos="random" departSpeed="max">
        <route edges="-649036317#3 223632520#2 E3 649040853#1 -223632522"/>
    </vehicle>
    <vehicle id="veh2" depart="4.42" departLane="best" departPos="random" departSpeed="max">
        <route edges="258728090#1 258728090#3 258728090#4 -E1 -223632520#1"/>
    </vehicle>
    <vehicle id="veh3" depart="6.63" departLane="best" departPos="random" departSpeed="max">
        <route edges="-671642282 258728090#0 223632517 -E3 -223632520#2 -223632520#1 -223632520#0"/>
    </vehicle>
    <vehicle id="veh4" depart="8.84" departLane="best" departPos="random" departSpeed="max">
        <route edges="-144943776 -649040853#1 -E3 -E2 -649064895 649064896#1 258728090#3"/>
    </vehicle>
    <vehicle id="veh5" depart="11.05" departLane="best" departPos="random" departSpeed="max">
        <route edges="258728090#0 223632517 649040853#1 649040853#2"/>
    </vehicle>
    <vehicle id="veh6" depart="13.26" departLane="best" departPos="random" departSpeed="max">
        <route edges="-E2 -649064895 649064895 E2 -223632520#2 E1"/>
    </vehicle>
    <vehicle id="veh7" depart="15.47" departLane="best" departPos="random" departSpeed="max">
        <route edges="223632520#0 223632520#1 223632520#2"/>
    </vehicle>
    <vehicle id="veh8" depart="17.68" departLane="best" departPos="random" departSpeed="max">
        <route edges="-E4 649064896#1 -258728090#2 223632517"/>
    </vehicle>
    <vehicle id="veh9" depart="19.89" departLane="best" departPos="random" departSpeed="max">
        <route edges="223632525#0 223632520#1 223632520#2 E3 -223632517 -258728090#0"/>
    </vehicle>
    <vehicle id="veh10" depart="22.10" departLane="best" departPos="random" departSpeed="max">
        <route edges="223632525#1 -E1 -223632520#1"/>
    </vehicle>
    <vehicle id="veh11" depart="24.31" departLane="best" departPos="random" departSpeed="max">
        <route edges="E1 -223632525#2 223632520#1 649036317#3"/>
    </vehicle>
    <vehicle id="veh12" depart="26.52" departLane="best" departPos="random" departSpeed="max">
        <route edges="-223632526 -671642282 258728090#0 258728090#1"/>
    </vehicle>
    <vehicle id="veh13" depart="28.73" departLane="best" departPos="random" departSpeed="max">
        <route edges="-649064896#1 649064896#1 -258728090#2"/>
    </vehicle>
    <vehicle id="veh14" depart="30.94" departLane="best" departPos="random" departSpeed="max">
        <route edges="-671642282 258728090#0 223632517 -E3 -223632520#2 E1"/>
    </vehicle>
    <vehicle id="veh15" depart="33.15" departLane="best" departPos="random" departSpeed="max">
        <route edges="-E4 649064896#1 258728090#3 258728090#4 -223632525#2"/>
    </vehicle>
    <vehicle id="veh16" depart="35.36" departLane="best" departPos="random" departSpeed="max">
        <route edges="-649064896#1 E4 258728090#4 -223632525#2"/>
    </vehicle>
    <vehicle id="veh17" depart="37.57" departLane="best" departPos="random" departSpeed="max">
        <route edges="258728090#4 -223632525#2 -223632525#0"/>
    </vehicle>
    <vehicle id="veh18" depart="39.78" departLane="best" departPos="random" departSpeed="max">
        <route edges="-649036317#3 223632520#2 E3"/>
    </vehicle>
    <vehicle id="veh19" depart="41.99" departLane="best" departPos="random" departSpeed="max">
        <route edges="-649064896#1 649064895 E2 E3 -223632517"/>
    </vehicle>
    <vehicle id="veh21" depart="46.41" departLane="best" departPos="random" departSpeed="max">
        <route edges="223632522 649040853#2"/>
    </vehicle>
    <vehicle id="veh22" depart="48.62" departLane="best" departPos="random" departSpeed="max">
        <route edges="E1 -258728090#4 -E4 649064895 E2 E3 649040853#1 -223632522"/>
    </vehicle>
    <vehicle id="veh23" depart="50.83" departLane="best" departPos="random" departSpeed="max">
        <route edges="-223632526 -671642282 258728090#0 258728090#1 -649064896#1 649064896#1 -258728090#2 -258728090#0"/>
    </vehicle>
    <vehicle id="veh24" depart="53.04" departLane="best" departPos="random" departSpeed="max">
        <route edges="223632520#0 223632520#1 223632520#2 -E2 -649064895"/>
    </vehicle>
    <vehicle id="veh26" depart="57.46" departLane="best" departPos="random" departSpeed="max">
        <route edges="-649036317#3 223632520#2 E3 -223632517 -258728090#0 671642282 223632526"/>
    </vehicle>
    <vehicle id="veh27" depart="59.67" departLane="best" departPos="random" departSpeed="max">
        <route edges="223632525#0 223632520#1 223632520#2 E3 649040853#1 649040853#2"/>
    </vehicle>
    <vehicle id="veh28" depart="61.88" departLane="best" departPos="random" departSpeed="max">
        <route edges="223632525#0 -223632520#0"/>
    </vehicle>
    <vehicle id="veh29" depart="64.09" departLane="best" departPos="random" departSpeed="max">
        <route edges="-144943776 -649040853#1 -E3 -E2 -649064895"/>
    </vehicle>
    <vehicle id="veh30" depart="66.30" departLane="best" departPos="random" departSpeed="max">
        <route edges="223632520#0 223632520#1 223632520#2 E3 649040853#1 -223632522"/>
    </vehicle>
    <vehicle id="veh31" depart="68.51" departLane="best" departPos="random" departSpeed="max">
        <route edges="-223632526 -671642282 258728090#0 258728090#1 -649064896#1 E4"/>
    </vehicle>
    <vehicle id="veh32" depart="70.72" departLane="best" departPos="random" departSpeed="max">
        <route edges="-144943776 -649040853#1 -E3 -223632520#2 E1"/>
    </vehicle>
    <vehicle id="veh34" depart="75.14" departLane="best" departPos="random" departSpeed="max">
        <route edges="223632525#0 223632520#1 E1 -223632525#2 -223632525#0"/>
    </vehicle>
    <vehicle id="veh35" depart="77.35" departLane="best" departPos="random" departSpeed="max">
        <route edges="-649040853#1 -E3"/>
    </vehicle>
    <vehicle id="veh36" depart="79.56" departLane="best" departPos="random" departSpeed="max">
        <route edges="-649040853#1 -E3 -E2 -649064895"/>
    </vehicle>
    <vehicle id="veh38" depart="83.98" departLane="best" departPos="random" departSpeed="max">
        <route edges="223632525#0 223632520#1 649036317#3"/>
    </vehicle>
    <vehicle id="veh39" depart="86.19" departLane="best" departPos="random" departSpeed="max">
        <route edges="223632525#0 223632525#1 -258728090#4 -258728090#3 -258728090#2 223632517"/>
    </vehicle>
    <vehicle id="veh40" depart="88.40" departLane="best" departPos="random" departSpeed="max">
        <route edges="223632520#0 223632520#1 223632520#2 E3 649040853#1"/>
    </vehicle>
    <vehicle id="veh41" depart="90.61" departLane="best" departPos="random" departSpeed="max">
        <route edges="-649036317#3 -223632520#1"/>
    </vehicle>
    <vehicle id="veh42" depart="92.82" departLane="best" departPos="random" departSpeed="max">
        <route edges="-258728090#2 223632517 -E3 -223632520#2 -223632520#1 -223632520#0"/>
    </vehicle>
    <vehicle id="veh43" depart="95.03" departLane="best" departPos="random" departSpeed="max">
        <route edges="223632525#0 223632520#1 223632520#2 E3 -223632517 -258728090#0 671642282"/>
    </vehicle>
    <vehicle id="veh44" depart="97.24" departLane="best" departPos="random" departSpeed="max">
        <route edges="223632525#1 -258728090#4 -258728090#3 -258728090#2 223632517 -E3"/>
    </vehicle>
    <vehicle id="veh45" depart="99.45" departLane="best" departPos="random" departSpeed="max">
        <route edges="223632520#0 223632520#1 223632520#2 E3 649040853#1 649040853#2"/>
    </vehicle>
    <vehicle id="veh46" depart="101.66" departLane="best" departPos="random" departSpeed="max">
        <route edges="-649064895 649064895 E2 E3 649040853#1 649040853#2"/>
    </vehicle>
    <vehicle id="veh47" depart="103.87" departLane="best" departPos="random" departSpeed="max">
        <route edges="223632522 -649040853#1 -223632517 -258728090#0 671642282 223632526"/>
    </vehicle>
    <vehicle id="veh48" depart="106.08" departLane="best" departPos="random" departSpeed="max">
        <route edges="258728090#1 -649064896#1 649064896#1 -258728090#2 -258728090#0 671642282 223632526"/>
    </vehicle>
    <vehicle id="veh49" depart="108.29" departLane="best" departPos="random" departSpeed="max">
        <route edges="223632525#1 -258728090#4 -258728090#3 -258728090#2"/>
    </vehicle>
    <vehicle id="veh51" depart="112.71" departLane="best" departPos="random" departSpeed="max">
        <route edges="-E4 649064895 E2 -223632520#2 -223632520#1 -223632520#0"/>
    </vehicle>
    <vehicle id="veh52" depart="114.92" departLane="best" departPos="random" departSpeed="max">
        <route edges="-649040853#1 -E3 -E2 -649064895 E4 -258728090#3"/>
    </vehicle>
    <vehicle id="veh53" depart="117.13" departLane="best" departPos="random" departSpeed="max">
        <route edges="-223632526 -671642282 258728090#0 223632517 -E3 -223632520#2 -223632520#1 -223632520#0"/>
    </vehicle>
    <vehicle id="veh54" depart="119.34" departLane="best" departPos="random" departSpeed="max">
        <route edges="-649064896#1 649064895 E2 -223632520#2 -223632520#1"/>
    </vehicle>
    <vehicle id="veh55" depart="121.55" departLane="best" departPos="random" departSpeed="max">
        <route edges="258728090#4 -E1"/>
    </vehicle>
    <vehicle id="veh56" depart="123.76" departLane="best" departPos="random" departSpeed="max">
        <route edges="-144943776 -649040853#1 -E3 -223632520#2 649036317#3"/>
    </vehicle>
    <vehicle id="veh57" depart="125.97" departLane="best" departPos="random" departSpeed="max">
        <route edges="-223632525#2 223632520#1"/>
    </vehicle>
    <vehicle id="veh58" depart="128.18" departLane="best" departPos="random" departSpeed="max">
        <route edges="223632522 -649040853#1 -E3 -E2 -649064895 649064895 E2 E3 649040853#1 -223632522"/>
    </vehicle>
    <vehicle id="veh59" depart="130.39" departLane="best" departPos="random" departSpeed="max">
        <route edges="223632517 -E3 -223632520#2 649036317#3"/>
    </vehicle>
    <vehicle id="veh60" depart="132.60" departLane="best" departPos="random" departSpeed="max">
        <route edges="-223632525#2 223632520#1 223632520#2 E3"/>
    </vehicle>
    <vehicle id="veh61" depart="134.81" departLane="best" departPos="random" departSpeed="max">
        <route edges="223632520#0 223632520#1 649036317#3"/>
    </vehicle>
    <vehicle id="veh62" depart="137.02" departLane="best" departPos="random" departSpeed="max">
        <route edges="-223632526 -671642282 258728090#0 223632517 -E3 -223632520#2 E1 -258728090#4"/>
    </vehicle>
    <vehicle id="veh63" depart="139.23" departLane="best" departPos="random" departSpeed="max">
        <route edges="223632525#0 223632525#1 -258728090#4 -E4 649064895 E2"/>
    </vehicle>
    <vehicle id="veh64" depart="141.44" departLane="best" departPos="random" departSpeed="max">
        <route edges="258728090#3 258728090#4 -E1"/>
    </vehicle>
    <vehicle id="veh65" depart="143.65" departLane="best" departPos="random" departSpeed="max">
        <route edges="223632520#0 223632520#1 223632520#2 E3 649040853#1 -223632522"/>
    </vehicle>
    <vehicle id="veh66" depart="145.86" departLane="best" departPos="random" departSpeed="max">
        <route edges="-E4 649064895 E2 -223632520#2 -223632520#1 -223632525#0"/>
    </vehicle>
    <vehicle id="veh67" depart="148.07" departLane="best" departPos="random" departSpeed="max">
        <route edges="-671642282 258728090#0 258728090#1 258728090#3"/>
    </vehicle>
    <vehicle id="veh68" depart="150.28" departLane="best" departPos="random" departSpeed="max">
        <route edges="-223632526 -671642282 258728090#0 223632517 -E3 -223632520#2 -223632520#1 223632525#1"/>
    </vehicle>
    <vehicle id="veh70" depart="154.70" departLane="best" departPos="random" departSpeed="max">
        <route edges="-223632526 -671642282 258728090#0 258728090#1 258728090#3 258728090#4"/>
    </vehicle>
    <vehicle id="veh71" depart="156.91" departLane="best" departPos="random" departSpeed="max">
        <route edges="-E2 -649064895 649064895"/>
    </vehicle>
    <vehicle id="veh72" depart="159.12" departLane="best" departPos="random" departSpeed="max">
        <route edges="649064895 E2"/>
    </vehicle>
    <vehicle id="veh73" depart="161.33" departLane="best" departPos="random" departSpeed="max">
        <route edges="-649064896#1 E4 258728090#4 -223632525#2 -223632525#0"/>
    </vehicle>
    <vehicle id="veh74" depart="163.54" departLane="best" departPos="random" departSpeed="max">
        <route edges="-144943776 -649040853#1 -E3 -E2 -649064895 E4 258728090#4 -223632525#2 223632520#1"/>
    </vehicle>
    <vehicle id="veh75" depart="165.75" departLane="best" departPos="random" departSpeed="max">
        <route edges="223632525#0 223632525#1 -258728090#4 -E4 649064896#1 258728090#3"/>
    </vehicle>
    <vehicle id="veh76" depart="167.96" departLane="best" departPos="random" departSpeed="max">
        <route edges="E3 649040853#1 -223632522"/>
    </vehicle>
    <vehicle id="veh77" depart="170.17" departLane="best" departPos="random" departSpeed="max">
        <route edges="E1 -258728090#4 -E4 649064895 E2 E3 649040853#1"/>
    </vehicle>
    <vehicle id="veh78" depart="172.38" departLane="best" departPos="random" departSpeed="max">
        <route edges="223632520#0 223632525#1 -258728090#4 -E4 649064896#1"/>
    </vehicle>
    <vehicle id="veh79" depart="174.59" departLane="best" departPos="random" departSpeed="max">
        <route edges="-E2 -649064895 649064895 E2 E3 649040853#1 649040853#2"/>
    </vehicle>
    <vehicle id="veh80" depart="176.80" departLane="best" departPos="random" departSpeed="max">
        <route edges="223632520#2 E3 649040853#1 649040853#2"/>
    </vehicle>
    <vehicle id="veh81" depart="179.01" departLane="best" departPos="random" departSpeed="max">
        <route edges="-649064895 E4 258728090#4 -E1 -223632520#1"/>
    </vehicle>
    <vehicle id="veh82" depart="181.22" departLane="best" departPos="random" departSpeed="max">
        <route edges="-649036317#3 -223632520#1 -223632525#0"/>
    </vehicle>
    <vehicle id="veh83" depart="183.43" departLane="best" departPos="random" departSpeed="max">
        <route edges="-223632526 -671642282 258728090#0 223632517 -E3 -E2"/>
    </vehicle>
    <vehicle id="veh84" depart="185.64" departLane="best" departPos="random" departSpeed="max">
        <route edges="649064895 -649064895 649064896#1"/>
    </vehicle>
    <vehicle id="veh85" depart="187.85" departLane="best" departPos="random" departSpeed="max">
        <route edges="-E4 649064896#1 -258728090#2 -258728090#0 671642282 223632526"/>
    </vehicle>
    <vehicle id="veh86" depart="190.06" departLane="best" departPos="random" departSpeed="max">
        <route edges="223632520#2 -E2 -649064895 649064895 E2 -223632520#2"/>
    </vehicle>
    <vehicle id="veh87" depart="192.27" departLane="best" departPos="random" departSpeed="max">
        <route edges="E3 649040853#1 649040853#2"/>
    </vehicle>
    <vehicle id="veh88" depart="194.48" departLane="best" departPos="random" departSpeed="max">
        <route edges="223632525#0 223632525#1 -258728090#4"/>
    </vehicle>
    <vehicle id="veh89" depart="196.69" departLane="best" departPos="random" departSpeed="max">
        <route edges="223632522 -649040853#1 -E3 -E2 -649064895 649064895 E2 E3"/>
    </vehicle>
    <vehicle id="veh90" depart="198.90" departLane="best" departPos="random" departSpeed="max">
        <route edges="649064895 E2 E3 -223632517 -258728090#0 671642282"/>
    </vehicle>
    <vehicle id="veh91" depart="201.11" departLane="best" departPos="random" departSpeed="max">
        <route edges="223632520#0 223632525#1 -258728090#4 -258728090#3"/>
    </vehicle>
    <vehicle id="veh92" depart="203.32" departLane="best" departPos="random" departSpeed="max">
        <route edges="223632520#0 223632520#1 649036317#3"/>
    </vehicle>
    <vehicle id="veh93" depart="205.53" departLane="best" departPos="random" departSpeed="max">
        <route edges="-649036317#3 E1"/>
    </vehicle>
    <vehicle id="veh94" depart="207.74" departLane="best" departPos="random" departSpeed="max">
        <route edges="223632517 649040853#1 649040853#2"/>
    </vehicle>
    <vehicle id="veh95" depart="209.95" departLane="best" departPos="random" departSpeed="max">
        <route edges="-223632517 258728090#1 -649064896#1 649064895"/>
    </vehicle>
    <vehicle id="veh96" depart="212.16" departLane="best" departPos="random" departSpeed="max">
        <route edges="-649036317#3 223632520#2 E3 649040853#1 649040853#2"/>
    </vehicle>
    <vehicle id="veh97" depart="214.37" departLane="best" departPos="random" departSpeed="max">
        <route edges="223632525#0 223632520#1 E1 -223632525#2 -223632525#0"/>
    </vehicle>
    <vehicle id="veh98" depart="216.58" departLane="best" departPos="random" departSpeed="max">
        <route edges="223632520#2 -E2 -649064895 649064896#1 -258728090#2 223632517 -E3"/>
    </vehicle>
    <vehicle id="veh100" depart="221.00" departLane="best" departPos="random" departSpeed="max">
        <route edges="E3 649040853#1 649040853#2"/>
    </vehicle>
    <vehicle id="veh101" depart="223.21" departLane="best" departPos="random" departSpeed="max">
        <route edges="-223632525#2 223632520#1 E1 -258728090#4"/>
    </vehicle>
    <vehicle id="veh103" depart="227.63" departLane="best" departPos="random" departSpeed="max">
        <route edges="-E4 649064895 E2 -223632520#2 -223632520#1 -223632525#0"/>
    </vehicle>
    <vehicle id="veh104" depart="229.84" departLane="best" departPos="random" departSpeed="max">
        <route edges="223632520#0 223632520#1 223632520#2 E3 -223632517"/>
    </vehicle>
    <vehicle id="veh105" depart="232.05" departLane="best" departPos="random" departSpeed="max">
        <route edges="E3 -223632517 258728090#1 258728090#3 258728090#4 -223632525#2 -223632520#0"/>
    </vehicle>
    <vehicle id="veh106" depart="234.26" departLane="best" departPos="random" departSpeed="max">
        <route edges="-E1 223632520#2 -E2 -649064895 649064896#1 258728090#3"/>
    </vehicle>
    <vehicle id="veh107" depart="236.47" departLane="best" departPos="random" departSpeed="max">
        <route edges="-649064896#1 649064896#1 -258728090#2 -258728090#0"/>
    </vehicle>
    <vehicle id="veh108" depart="238.68" departLane="best" departPos="random" departSpeed="max">
        <route edges="258728090#4 -E1 649036317#3"/>
    </vehicle>
    <vehicle id="veh109" depart="240.89" departLane="best" departPos="random" departSpeed="max">
        <route edges="223632520#2 -E2 -649064895 649064895"/>
    </vehicle>
    <vehicle id="veh110" depart="243.10" departLane="best" departPos="random" departSpeed="max">
        <route edges="-649036317#3 -223632520#1 -223632520#0"/>
    </vehicle>
    <vehicle id="veh111" depart="245.31" departLane="best" departPos="random" departSpeed="max">
        <route edges="258728090#1 -649064896#1 649064896#1 -258728090#2"/>
    </vehicle>
    <vehicle id="veh112" depart="247.52" departLane="best" departPos="random" departSpeed="max">
        <route edges="-223632525#2 223632520#1 223632520#2 -E2 -649064895 649064895 E2 -223632520#2"/>
    </vehicle>
    <vehicle id="veh113" depart="249.73" departLane="best" departPos="random" departSpeed="max">
        <route edges="223632520#0 223632520#1"/>
    </vehicle>
    <vehicle id="veh114" depart="251.94" departLane="best" departPos="random" departSpeed="max">
        <route edges="223632520#0 223632525#1 -E1"/>
    </vehicle>
    <vehicle id="veh116" depart="256.36" departLane="best" departPos="random" departSpeed="max">
        <route edges="-649036317#3 223632520#2 E3 -223632517 -258728090#0"/>
    </vehicle>
    <vehicle id="veh118" depart="260.78" departLane="best" departPos="random" departSpeed="max">
        <route edges="-649036317#3 -223632520#1 -223632520#0"/>
    </vehicle>
    <vehicle id="veh119" depart="262.99" departLane="best" departPos="random" departSpeed="max">
        <route edges="-223632520#2 E1 -258728090#4 -E4 649064895 E2 E3 649040853#1 649040853#2"/>
    </vehicle>
    <vehicle id="veh120" depart="265.20" departLane="best" departPos="random" departSpeed="max">
        <route edges="-144943776 -649040853#1 -E3 -223632520#2 -223632520#1"/>
    </vehicle>
    <vehicle id="veh121" depart="267.41" departLane="best" departPos="random" departSpeed="max">
        <route edges="-144943776 -649040853#1 -E3 -223632520#2 -223632520#1 -223632525#0"/>
    </vehicle>
    <vehicle id="veh122" depart="269.62" departLane="best" departPos="random" departSpeed="max">
        <route edges="-223632520#1 223632525#1 -E1 649036317#3"/>
    </vehicle>
    <vehicle id="veh123" depart="271.83" departLane="best" departPos="random" departSpeed="max">
        <route edges="223632522 -649040853#1 -223632517 258728090#1"/>
    </vehicle>
    <vehicle id="veh124" depart="274.04" departLane="best" departPos="random" departSpeed="max">
        <route edges="E4 258728090#4 -E1 223632520#2 E3 649040853#1 649040853#2"/>
    </vehicle>
    <vehicle id="veh125" depart="276.25" departLane="best" departPos="random" departSpeed="max">
        <route edges="223632522 -649040853#1 -E3 -223632520#2 649036317#3"/>
    </vehicle>
    <vehicle id="veh126" depart="278.46" departLane="best" departPos="random" departSpeed="max">
        <route edges="-223632525#2 223632520#1 223632520#2 E3 -223632517 -258728090#0 671642282 223632526"/>
    </vehicle>
    <vehicle id="veh127" depart="280.67" departLane="best" departPos="random" departSpeed="max">
        <route edges="E3 649040853#1 -223632522"/>
    </vehicle>
    <vehicle id="veh128" depart="282.88" departLane="best" departPos="random" departSpeed="max">
        <route edges="-E2 -649064895 649064896#1 -258728090#2 -258728090#0 671642282 223632526"/>
    </vehicle>
    <vehicle id="veh129" depart="285.09" departLane="best" departPos="random" departSpeed="max">
        <route edges="-E4 649064895 -649064895"/>
    </vehicle>
    <vehicle id="veh130" depart="287.30" departLane="best" departPos="random" departSpeed="max">
        <route edges="-144943776 -649040853#1 -E3 -E2 -649064895 649064895"/>
    </vehicle>
    <vehicle id="veh131" depart="289.51" departLane="best" departPos="random" departSpeed="max">
        <route edges="-144943776 -649040853#1 -E3 -E2 -649064895 E4"/>
    </vehicle>
    <vehicle id="veh132" depart="291.72" departLane="best" departPos="random" departSpeed="max">
        <route edges="649040853#1"/>
    </vehicle>
    <vehicle id="veh133" depart="293.93" departLane="best" departPos="random" departSpeed="max">
        <route edges="-E1 223632520#2 E3 649040853#1 649040853#2"/>
    </vehicle>
    <vehicle id="veh134" depart="296.14" departLane="best" departPos="random" departSpeed="max">
        <route edges="223632520#2 -E2 -649064895 649064895 E2"/>
    </vehicle>
    <vehicle id="veh135" depart="298.35" departLane="best" departPos="random" departSpeed="max">
        <route edges="-223632526 -671642282 258728090#0 223632517 649040853#1 -223632522"/>
    </vehicle>
    <vehicle id="veh136" depart="300.56" departLane="best" departPos="random" departSpeed="max">
        <route edges="223632525#0 223632525#1 -258728090#4 -258728090#3"/>
    </vehicle>
    <vehicle id="veh137" depart="302.77" departLane="best" departPos="random" departSpeed="max">
        <route edges="-258728090#3 -258728090#2 -258728090#0 671642282 223632526"/>
    </vehicle>
    <vehicle id="veh138" depart="304.98" departLane="best" departPos="random" departSpeed="max">
        <route edges="649064895 E2 -223632520#2 -223632520#1 -223632525#0"/>
    </vehicle>
    <vehicle id="veh139" depart="307.19" departLane="best" departPos="random" departSpeed="max">
        <route edges="223632520#0 223632520#1 223632520#2 E3 -223632517 258728090#1"/>
    </vehicle>
    <vehicle id="veh140" depart="309.40" departLane="best" departPos="random" departSpeed="max">
        <route edges="E4 -258728090#3 -649064896#1 649064896#1"/>
    </vehicle>
    <vehicle id="veh141" depart="311.61" departLane="best" departPos="random" departSpeed="max">
        <route edges="223632520#0 223632520#1 223632520#2 E3 649040853#1 649040853#2"/>
    </vehicle>
    <vehicle id="veh142" depart="313.82" departLane="best" departPos="random" departSpeed="max">
        <route edges="223632525#0 223632520#1 223632520#2"/>
    </vehicle>
    <vehicle id="veh143" depart="316.03" departLane="best" departPos="random" departSpeed="max">
        <route edges="223632520#0 223632520#1 223632520#2 E3 -223632517 -258728090#0 671642282 223632526"/>
    </vehicle>
    <vehicle id="veh144" depart="318.24" departLane="best" departPos="random" departSpeed="max">
        <route edges="-649040853#1 -E3 -223632520#2 E1 -258728090#4"/>
    </vehicle>
    <vehicle id="veh145" depart="320.45" departLane="best" departPos="random" departSpeed="max">
        <route edges="-223632526 -671642282 258728090#0 258728090#1 -649064896#1 649064896#1 -258728090#2 -258728090#0 671642282 223632526"/>
    </vehicle>
    <vehicle id="veh146" depart="322.66" departLane="best" departPos="random" departSpeed="max">
        <route edges="-223632526 -671642282 258728090#0 258728090#1 258728090#3 -E4"/>
    </vehicle>
    <vehicle id="veh147" depart="324.87" departLane="best" departPos="random" departSpeed="max">
        <route edges="-223632525#2 223632520#1 223632520#2 -E2 -649064895 649064895"/>
    </vehicle>
    <vehicle id="veh148" depart="327.08" departLane="best" departPos="random" departSpeed="max">
        <route edges="-258728090#4 -E4 649064896#1"/>
    </vehicle>
    <vehicle id="veh149" depart="329.29" departLane="best" departPos="random" departSpeed="max">
        <route edges="-649064895 649064895 E2"/>
    </vehicle>
    <vehicle id="veh150" depart="331.50" departLane="best" departPos="random" departSpeed="max">
        <route edges="223632522 -649040853#1 -E3 -E2 -649064895 E4 -258728090#3"/>
    </vehicle>
    <vehicle id="veh151" depart="333.71" departLane="best" departPos="random" departSpeed="max">
        <route edges="-258728090#2 223632517 -E3 -223632520#2 649036317#3"/>
    </vehicle>
    <vehicle id="veh152" depart="335.92" departLane="best" departPos="random" departSpeed="max">
        <route edges="258728090#1 258728090#3 258728090#4 -223632525#2 -223632525#0"/>
    </vehicle>
    <vehicle id="veh153" depart="338.13" departLane="best" departPos="random" departSpeed="max">
        <route edges="-223632517 258728090#1 258728090#3 258728090#4 -E1 649036317#3"/>
    </vehicle>
    <vehicle id="veh154" depart="340.34" departLane="best" departPos="random" departSpeed="max">
        <route edges="-E4 649064895 E2 E3 649040853#1 649040853#2"/>
    </vehicle>
    <vehicle id="veh155" depart="342.55" departLane="best" departPos="random" departSpeed="max">
        <route edges="223632520#1 223632520#2 E3 649040853#1 -223632522"/>
    </vehicle>
    <vehicle id="veh156" depart="344.76" departLane="best" departPos="random" departSpeed="max">
        <route edges="-223632526 -671642282 258728090#0 223632517 -E3 -223632520#2 -223632520#1 -223632520#0"/>
    </vehicle>
    <vehicle id="veh157" depart="346.97" departLane="best" departPos="random" departSpeed="max">
        <route edges="223632522 -649040853#1 -E3 -223632520#2 -223632520#1 -223632525#0"/>
    </vehicle>
    <vehicle id="veh159" depart="351.39" departLane="best" departPos="random" departSpeed="max">
        <route edges="223632517 -E3 -E2 -649064895 E4 258728090#4 -223632525#2 223632520#1"/>
    </vehicle>
    <vehicle id="veh160" depart="353.60" departLane="best" departPos="random" departSpeed="max">
        <route edges="223632522 -649040853#1 -E3 -223632520#2 649036317#3"/>
    </vehicle>
    <vehicle id="veh161" depart="355.81" departLane="best" departPos="random" departSpeed="max">
        <route edges="223632525#0 223632525#1 -258728090#4 -258728090#3 -258728090#2 223632517"/>
    </vehicle>
    <vehicle id="veh162" depart="358.02" departLane="best" departPos="random" departSpeed="max">
        <route edges="-671642282 258728090#0 223632517 -E3 -223632520#2 -223632520#1 -223632525#0"/>
    </vehicle>