<?xml version="1.0" encoding="UTF-8"?>

<!-- generated on 2025-05-11 07:00:25.949063 by randomTrips.py v1_22_0+0002-63e50f52594
<configuration>
    <net-file value="E:/licenta/oras-mic/2025-05-08-13-35-40\osm.net.xml"/>
    <output-trip-file value="E:/licenta/oras-mic/2025-05-08-13-35-40\trips.trips.xml"/>
    <route-file value="E:/licenta/oras-mic/2025-05-08-13-35-40\generated_routes\routes_worker3_96b6336c.rou.xml"/>
    <prefix value="veh"/>
    <trip-attributes value="departLane=&quot;best&quot; departSpeed=&quot;max&quot; departPos=&quot;random&quot;"/>
    <fringe-factor value="2.0"/>
    <seed value="73037"/>
    <end value="600.0"/>
    <period value="1.66"/>
</configuration>
-->

<!-- generated on 2025-05-11 07:00:25 by Eclipse SUMO duarouter Version 1.22.0
<duarouterConfiguration xmlns:xsi="http://www.w3.org/2001/XMLSchema-instance" xsi:noNamespaceSchemaLocation="http://sumo.dlr.de/xsd/duarouterConfiguration.xsd">

    <input>
        <net-file value="E:/licenta/oras-mic/2025-05-08-13-35-40\osm.net.xml"/>
        <route-files value="E:/licenta/oras-mic/2025-05-08-13-35-40\trips.trips.xml"/>
    </input>

    <output>
        <output-file value="E:/licenta/oras-mic/2025-05-08-13-35-40\generated_routes\routes_worker3_96b6336c.rou.xml"/>
        <alternatives-output value="NUL"/>
    </output>

    <time>
        <begin value="0"/>
        <end value="600.0"/>
    </time>

    <report>
        <no-warnings value="true"/>
        <ignore-errors value="true"/>
        <no-step-log value="true"/>
    </report>

</duarouterConfiguration>
-->

<routes xmlns:xsi="http://www.w3.org/2001/XMLSchema-instance" xsi:noNamespaceSchemaLocation="http://sumo.dlr.de/xsd/routes_file.xsd">
    <vehicle id="veh0" depart="0.00" departLane="best" departPos="random" departSpeed="max">
        <route edges="223632525#0 223632520#1 223632520#2 E3 649040853#1 649040853#2"/>
    </vehicle>
    <vehicle id="veh1" depart="1.96" departLane="best" departPos="random" departSpeed="max">
        <route edges="E3 -223632517 258728090#1 258728090#3 258728090#4 -E1 649036317#3"/>
    </vehicle>
    <vehicle id="veh2" depart="3.92" departLane="best" departPos="random" departSpeed="max">
        <route edges="223632517 -E3 -E2 -649064895 E4 -258728090#3 -649064896#1"/>
    </vehicle>
    <vehicle id="veh3" depart="5.88" departLane="best" departPos="random" departSpeed="max">
        <route edges="-E3 -223632520#2 E1 -258728090#4 -E4"/>
    </vehicle>
    <vehicle id="veh4" depart="7.84" departLane="best" departPos="random" departSpeed="max">
        <route edges="-649036317#3 223632520#2 E3 -223632517"/>
    </vehicle>
    <vehicle id="veh5" depart="9.80" departLane="best" departPos="random" departSpeed="max">
        <route edges="-E2 -649064895 E4 258728090#4 -E1"/>
    </vehicle>
    <vehicle id="veh6" depart="11.76" departLane="best" departPos="random" departSpeed="max">
        <route edges="223632520#0 223632520#1 223632520#2 E3 649040853#1 649040853#2"/>
    </vehicle>
    <vehicle id="veh7" depart="13.72" departLane="best" departPos="random" departSpeed="max">
        <route edges="-E3 -E2"/>
    </vehicle>
    <vehicle id="veh10" depart="19.60" departLane="best" departPos="random" departSpeed="max">
        <route edges="-E4 649064896#1 258728090#3 258728090#4 -223632525#2"/>
    </vehicle>
    <vehicle id="veh12" depart="23.52" departLane="best" departPos="random" departSpeed="max">
        <route edges="223632525#1 -258728090#4 -E4 649064895 E2 -223632520#2"/>
    </vehicle>
    <vehicle id="veh14" depart="27.44" departLane="best" departPos="random" departSpeed="max">
        <route edges="223632517 -E3 -223632520#2 E1 -258728090#4"/>
    </vehicle>
    <vehicle id="veh15" depart="29.40" departLane="best" departPos="random" departSpeed="max">
        <route edges="223632520#0 223632520#1 E1"/>
    </vehicle>
    <vehicle id="veh16" depart="31.36" departLane="best" departPos="random" departSpeed="max">
        <route edges="E4 -258728090#3 -649064896#1 649064896#1 258728090#3"/>
    </vehicle>
    <vehicle id="veh18" depart="35.28" departLane="best" departPos="random" departSpeed="max">
        <route edges="-144943776 -649040853#1 -223632517 -258728090#0 671642282 223632526"/>
    </vehicle>
    <vehicle id="veh19" depart="37.24" departLane="best" departPos="random" departSpeed="max">
        <route edges="223632520#2 -E2"/>
    </vehicle>
    <vehicle id="veh20" depart="39.20" departLane="best" departPos="random" departSpeed="max">
        <route edges="649064895 E2 -223632520#2 -223632520#1 223632525#1"/>
    </vehicle>
    <vehicle id="veh21" depart="41.16" departLane="best" departPos="random" departSpeed="max">
        <route edges="258728090#1 -649064896#1 649064895 E2"/>
    </vehicle>
    <vehicle id="veh22" depart="43.12" departLane="best" departPos="random" departSpeed="max">
        <route edges="-223632520#2 -223632520#1 -223632525#0"/>
    </vehicle>
    <vehicle id="veh23" depart="45.08" departLane="best" departPos="random" departSpeed="max">
        <route edges="258728090#4 -223632525#2 223632520#1"/>
    </vehicle>
    <vehicle id="veh24" depart="47.04" departLane="best" departPos="random" departSpeed="max">
        <route edges="E2 -223632520#2 -223632520#1 -223632520#0"/>
    </vehicle>
    <vehicle id="veh25" depart="49.00" departLane="best" departPos="random" departSpeed="max">
        <route edges="-E3 -E2 -649064895 649064896#1 -258728090#2 -258728090#0 671642282 223632526"/>
    </vehicle>
    <vehicle id="veh26" depart="50.96" departLane="best" departPos="random" departSpeed="max">
        <route edges="223632520#2 E3 649040853#1"/>
    </vehicle>
    <vehicle id="veh27" depart="52.92" departLane="best" departPos="random" departSpeed="max">
        <route edges="-E2 -649064895 649064895 E2 E3 649040853#1"/>
    </vehicle>
    <vehicle id="veh28" depart="54.88" departLane="best" departPos="random" departSpeed="max">
        <route edges="E2 E3 -223632517 258728090#1 258728090#3"/>
    </vehicle>
    <vehicle id="veh29" depart="56.84" departLane="best" departPos="random" departSpeed="max">
        <route edges="E2 E3 -223632517 -258728090#0"/>
    </vehicle>
    <vehicle id="veh30" depart="58.80" departLane="best" departPos="random" departSpeed="max">
        <route edges="-258728090#3 -649064896#1 649064896#1"/>
    </vehicle>
    <vehicle id="veh31" depart="60.76" departLane="best" departPos="random" departSpeed="max">
        <route edges="258728090#0 258728090#1 -649064896#1 E4 -258728090#3"/>
    </vehicle>
    <vehicle id="veh32" depart="62.72" departLane="best" departPos="random" departSpeed="max">
        <route edges="223632522 -649040853#1 -E3 -223632520#2 -223632520#1 -223632520#0"/>
    </vehicle>
    <vehicle id="veh33" depart="64.68" departLane="best" departPos="random" departSpeed="max">
        <route edges="-649040853#1 -E3 -E2 -649064895 E4 258728090#4 -E1 223632520#2"/>
    </vehicle>
    <vehicle id="veh34" depart="66.64" departLane="best" departPos="random" departSpeed="max">
        <route edges="-223632520#1 223632525#1 -E1 223632520#2 -E2"/>
    </vehicle>
    <vehicle id="veh35" depart="68.60" departLane="best" departPos="random" departSpeed="max">
        <route edges="-E1 223632520#2 E3 -223632517 -258728090#0"/>
    </vehicle>
    <vehicle id="veh36" depart="70.56" departLane="best" departPos="random" departSpeed="max">
        <route edges="-E2 -649064895 649064895 E2 -223632520#2 E1 -258728090#4"/>
    </vehicle>
    <vehicle id="veh37" depart="72.52" departLane="best" departPos="random" departSpeed="max">
        <route edges="E4 -258728090#3 -258728090#2 -258728090#0"/>
    </vehicle>
    <vehicle id="veh38" depart="74.48" departLane="best" departPos="random" departSpeed="max">
        <route edges="-223632525#2 223632520#1 223632520#2 E3 -223632517 -258728090#0 671642282"/>
    </vehicle>
    <vehicle id="veh39" depart="76.44" departLane="best" departPos="random" departSpeed="max">
        <route edges="-649036317#3 -223632520#1 223632525#1"/>
    </vehicle>
    <vehicle id="veh40" depart="78.40" departLane="best" departPos="random" departSpeed="max">
        <route edges="258728090#0 223632517 -E3 -223632520#2 649036317#3"/>
    </vehicle>
    <vehicle id="veh41" depart="80.36" departLane="best" departPos="random" departSpeed="max">
        <route edges="-649064895 649064895 E2 E3 649040853#1 -223632522"/>
    </vehicle>
    <vehicle id="veh42" depart="82.32" departLane="best" departPos="random" departSpeed="max">
        <route edges="-649040853#1 -E3 -223632520#2 -223632520#1 223632525#1"/>
    </vehicle>
    <vehicle id="veh43" depart="84.28" departLane="best" departPos="random" departSpeed="max">
        <route edges="223632520#2 E3 -223632517 -258728090#0"/>
    </vehicle>
    <vehicle id="veh44" depart="86.24" departLane="best" departPos="random" departSpeed="max">
        <route edges="E4 -258728090#3 -649064896#1 649064895 E2"/>
    </vehicle>
    <vehicle id="veh45" depart="88.20" departLane="best" departPos="random" departSpeed="max">
        <route edges="258728090#1 -649064896#1 649064896#1 -258728090#2 223632517 -E3"/>
    </vehicle>
    <vehicle id="veh46" depart="90.16" departLane="best" departPos="random" departSpeed="max">
        <route edges="-144943776 -649040853#1 -E3 -E2 -649064895 649064895"/>
    </vehicle>
    <vehicle id="veh48" depart="94.08" departLane="best" departPos="random" departSpeed="max">
        <route edges="-223632526 -671642282 258728090#0 223632517 649040853#1 -223632522"/>
    </vehicle>
    <vehicle id="veh49" depart="96.04" departLane="best" departPos="random" departSpeed="max">
        <route edges="E1 -258728090#4 -E4 649064895 E2 E3 649040853#1 -223632522"/>
    </vehicle>
    <vehicle id="veh50" depart="98.00" departLane="best" departPos="random" departSpeed="max">
        <route edges="223632520#1 223632520#2"/>
    </vehicle>
    <vehicle id="veh51" depart="99.96" departLane="best" departPos="random" departSpeed="max">
        <route edges="-649064895 649064896#1 -258728090#2 223632517 -E3"/>
    </vehicle>
    <vehicle id="veh52" depart="101.92" departLane="best" departPos="random" departSpeed="max">
        <route edges="-649064895 E4 -258728090#3 -649064896#1"/>
    </vehicle>
    <vehicle id="veh53" depart="103.88" departLane="best" departPos="random" departSpeed="max">
        <route edges="649064895 -649064895 E4"/>
    </vehicle>
    <vehicle id="veh54" depart="105.84" departLane="best" departPos="random" departSpeed="max">
        <route edges="-258728090#4 -258728090#3 -258728090#2 -258728090#0"/>
    </vehicle>
    <vehicle id="veh55" depart="107.80" departLane="best" departPos="random" departSpeed="max">
        <route edges="-223632520#1 223632525#1 -258728090#4 -E4 649064895 E2"/>
    </vehicle>
    <vehicle id="veh56" depart="109.76" departLane="best" departPos="random" departSpeed="max">
        <route edges="258728090#4 -E1 223632520#2 E3 -223632517 -258728090#0"/>
    </vehicle>
    <vehicle id="veh57" depart="111.72" departLane="best" departPos="random" departSpeed="max">
        <route edges="E3 -223632517 258728090#1"/>
    </vehicle>
    <vehicle id="veh58" depart="113.68" departLane="best" departPos="random" departSpeed="max">
        <route edges="223632525#0 223632520#1 223632520#2 E3 -223632517 258728090#1"/>
    </vehicle>
    <vehicle id="veh59" depart="115.64" departLane="best" departPos="random" departSpeed="max">
        <route edges="258728090#4 -E1 223632520#2 -E2 -649064895"/>
    </vehicle>
    <vehicle id="veh60" depart="117.60" departLane="best" departPos="random" departSpeed="max">
        <route edges="-649040853#1 -E3 -E2 -649064895 E4 -258728090#3"/>
    </vehicle>
    <vehicle id="veh61" depart="119.56" departLane="best" departPos="random" departSpeed="max">
        <route edges="-258728090#4"/>
    </vehicle>
    <vehicle id="veh62" depart="121.52" departLane="best" departPos="random" departSpeed="max">
        <route edges="-649064895 649064895 E2 E3 649040853#1"/>
    </vehicle>
    <vehicle id="veh63" depart="123.48" departLane="best" departPos="random" departSpeed="max">
        <route edges="-E2 -649064895 E4 258728090#4 -E1"/>
    </vehicle>
    <vehicle id="veh65" depart="127.40" departLane="best" departPos="random" departSpeed="max">
        <route edges="223632522 -649040853#1 -223632517"/>
    </vehicle>
    <vehicle id="veh66" depart="129.36" departLane="best" departPos="random" departSpeed="max">
        <route edges="223632520#2 -E2 -649064895 649064895"/>
    </vehicle>
    <vehicle id="veh67" depart="131.32" departLane="best" departPos="random" departSpeed="max">
        <route edges="-E1"/>
    </vehicle>
    <vehicle id="veh68" depart="133.28" departLane="best" departPos="random" departSpeed="max">
        <route edges="E1 -258728090#4"/>
    </vehicle>
    <vehicle id="veh69" depart="135.24" departLane="best" departPos="random" departSpeed="max">
        <route edges="-223632526 -671642282 258728090#0 258728090#1 258728090#3 258728090#4 -223632525#2 223632520#1"/>
    </vehicle>
    <vehicle id="veh70" depart="137.20" departLane="best" departPos="random" departSpeed="max">
        <route edges="-649064896#1"/>
    </vehicle>
    <vehicle id="veh71" depart="139.16" departLane="best" departPos="random" departSpeed="max">
        <route edges="258728090#3 -E4 649064895 E2"/>
    </vehicle>
    <vehicle id="veh72" depart="141.12" departLane="best" departPos="random" departSpeed="max">
        <route edges="-649036317#3 -223632520#1 -223632520#0"/>
    </vehicle>
    <vehicle id="veh73" depart="143.08" departLane="best" departPos="random" departSpeed="max">
        <route edges="223632517 -E3 -E2 -649064895 649064896#1"/>
    </vehicle>
    <vehicle id="veh74" depart="145.04" departLane="best" departPos="random" departSpeed="max">
        <route edges="-E4 649064895 E2 -223632520#2 -223632520#1"/>
    </vehicle>
    <vehicle id="veh75" depart="147.00" departLane="best" departPos="random" departSpeed="max">
        <route edges="-E1 223632520#2"/>
    </vehicle>
    <vehicle id="veh77" depart="150.92" departLane="best" departPos="random" departSpeed="max">
        <route edges="223632520#0 223632520#1 E1 -223632525#2"/>
    </vehicle>
    <vehicle id="veh78" depart="152.88" departLane="best" departPos="random" departSpeed="max">
        <route edges="E2 E3 -223632517 -258728090#0 671642282 223632526"/>
    </vehicle>
    <vehicle id="veh79" depart="154.84" departLane="best" departPos="random" departSpeed="max">
        <route edges="E4 258728090#4 -E1 223632520#2 E3"/>
    </vehicle>
    <vehicle id="veh80" depart="156.80" departLane="best" departPos="random" departSpeed="max">
        <route edges="E4 258728090#4 -E1 223632520#2"/>
    </vehicle>
    <vehicle id="veh81" depart="158.76" departLane="best" departPos="random" departSpeed="max">
        <route edges="223632525#1 -E1"/>
    </vehicle>
    <vehicle id="veh82" depart="160.72" departLane="best" departPos="random" departSpeed="max">
        <route edges="-E1 223632520#2 -E2 -649064895 649064895 E2"/>
    </vehicle>
    <vehicle id="veh83" depart="162.68" departLane="best" departPos="random" departSpeed="max">
        <route edges="-144943776 -649040853#1 -E3 -E2 -649064895 649064895 E2 E3 649040853#1"/>
    </vehicle>
    <vehicle id="veh84" depart="164.64" departLane="best" departPos="random" departSpeed="max">
        <route edges="-258728090#4 -E4 649064895 E2 E3 649040853#1 649040853#2"/>
    </vehicle>
    <vehicle id="veh85" depart="166.60" departLane="best" departPos="random" departSpeed="max">
        <route edges="649064896#1 258728090#3 -E4 649064895 E2 E3"/>
    </vehicle>
    <vehicle id="veh86" depart="168.56" departLane="best" departPos="random" departSpeed="max">
        <route edges="223632520#1 E1 -258728090#4 258728090#4 -E1"/>
    </vehicle>
    <vehicle id="veh87" depart="170.52" departLane="best" departPos="random" departSpeed="max">
        <route edges="223632517 -E3 -E2 -649064895"/>
    </vehicle>
    <vehicle id="veh88" depart="172.48" departLane="best" departPos="random" departSpeed="max">
        <route edges="223632520#1 E1 -258728090#4 -258728090#3 -258728090#2"/>
    </vehicle>
    <vehicle id="veh89" depart="174.44" departLane="best" departPos="random" departSpeed="max">
        <route edges="258728090#0 223632517 649040853#1 -223632522"/>
    </vehicle>
    <vehicle id="veh90" depart="176.40" departLane="best" departPos="random" departSpeed="max">
        <route edges="223632520#0 223632520#1 223632520#2 E3 649040853#1 649040853#2"/>
    </vehicle>
    <vehicle id="veh91" depart="178.36" departLane="best" departPos="random" departSpeed="max">
        <route edges="223632520#0 -223632525#0"/>
    </vehicle>
    <vehicle id="veh92" depart="180.32" departLane="best" departPos="random" departSpeed="max">
        <route edges="-223632520#1 223632525#1 -258728090#4 -E4 649064895 E2 E3"/>
    </vehicle>
    <vehicle id="veh93" depart="182.28" departLane="best" departPos="random" departSpeed="max">
        <route edges="-258728090#4 258728090#4 -E1 649036317#3"/>
    </vehicle>
    <vehicle id="veh95" depart="186.20" departLane="best" departPos="random" departSpeed="max">
        <route edges="E3"/>
    </vehicle>
    <vehicle id="veh96" depart="188.16" departLane="best" departPos="random" departSpeed="max">
        <route edges="E2 -223632520#2 E1 -223632525#2"/>
    </vehicle>
    <vehicle id="veh97" depart="190.12" departLane="best" departPos="random" departSpeed="max">
        <route edges="-258728090#2 -258728090#0 671642282 223632526"/>
    </vehicle>
    <vehicle id="veh99" depart="194.04" departLane="best" departPos="random" departSpeed="max">
        <route edges="223632522 -649040853#1 -E3 -223632520#2 -223632520#1 -223632525#0"/>
    </vehicle>
    <vehicle id="veh100" depart="196.00" departLane="best" departPos="random" departSpeed="max">
        <route edges="-223632526 -671642282 258728090#0 258728090#1 258728090#3 258728090#4 -223632525#2"/>
    </vehicle>
    <vehicle id="veh101" depart="197.96" departLane="best" departPos="random" departSpeed="max">
        <route edges="223632525#0 223632525#1 -258728090#4 -E4 649064895"/>
    </vehicle>
    <vehicle id="veh102" depart="199.92" departLane="best" departPos="random" departSpeed="max">
        <route edges="671642282"/>
    </vehicle>
    <vehicle id="veh105" depart="205.80" departLane="best" departPos="random" departSpeed="max">
        <route edges="-144943776 -649040853#1 -E3 -223632520#2 -223632520#1 -223632520#0"/>
    </vehicle>
    <vehicle id="veh106" depart="207.76" departLane="best" departPos="random" departSpeed="max">
        <route edges="-144943776 -649040853#1 -223632517 -258728090#0"/>
    </vehicle>
    <vehicle id="veh109" depart="213.64" departLane="best" departPos="random" departSpeed="max">
        <route edges="-649064896#1 E4 258728090#4 -223632525#2 -223632520#0"/>
    </vehicle>
    <vehicle id="veh111" depart="217.56" departLane="best" departPos="random" departSpeed="max">
        <route edges="258728090#1 258728090#3 258728090#4 -E1 649036317#3"/>
    </vehicle>
    <vehicle id="veh112" depart="219.52" departLane="best" departPos="random" departSpeed="max">
        <route edges="223632525#1 -E1 -223632520#1 -223632520#0"/>
    </vehicle>
    <vehicle id="veh113" depart="221.48" departLane="best" departPos="random" departSpeed="max">
        <route edges="-649064895 E4 258728090#4 -223632525#2 -223632520#0"/>
    </vehicle>
    <vehicle id="veh115" depart="225.40" departLane="best" departPos="random" departSpeed="max">
        <route edges="-E1 223632520#2 E3 649040853#1 -223632522"/>
    </vehicle>
    <vehicle id="veh116" depart="227.36" departLane="best" departPos="random" departSpeed="max">
        <route edges="-E1 223632520#2 E3 -223632517 258728090#1"/>
    </vehicle>
    <vehicle id="veh117" depart="229.32" departLane="best" departPos="random" departSpeed="max">
        <route edges="258728090#4 -E1 223632520#2 E3 -223632517 -258728090#0 671642282 223632526"/>
    </vehicle>
    <vehicle id="veh118" depart="231.28" departLane="best" departPos="random" departSpeed="max">
        <route edges="E2 -223632520#2 -223632520#1 -223632525#0"/>
    </vehicle>
    <vehicle id="veh119" depart="233.24" departLane="best" departPos="random" departSpeed="max">
        <route edges="-223632520#2 E1 -258728090#4 -258728090#3 -258728090#2 -258728090#0 671642282 223632526"/>
    </vehicle>
    <vehicle id="veh120" depart="235.20" departLane="best" departPos="random" departSpeed="max">
        <route edges="223632525#0 223632525#1 -258728090#4 -258728090#3"/>
    </vehicle>
    <vehicle id="veh121" depart="237.16" departLane="best" departPos="random" departSpeed="max">
        <route edges="-649040853#1 -E3 -E2 -649064895 649064896#1"/>
    </vehicle>
    <vehicle id="veh122" depart="239.12" departLane="best" departPos="random" departSpeed="max">
        <route edges="223632525#0 223632525#1 -258728090#4 -258728090#3 -258728090#2 223632517 -E3"/>
    </vehicle>
    <vehicle id="veh123" depart="241.08" departLane="best" departPos="random" departSpeed="max">
        <route edges="223632520#2 -E2 -649064895 649064896#1 -258728090#2 223632517"/>
    </vehicle>
    <vehicle id="veh124" depart="243.04" departLane="best" departPos="random" departSpeed="max">
        <route edges="-649040853#1 -E3 -E2 -649064895 649064895 E2 E3 649040853#1 -223632522"/>
    </vehicle>
    <vehicle id="veh125" depart="245.00" departLane="best" departPos="random" departSpeed="max">
        <route edges="-223632526 -671642282 258728090#0 223632517 -E3 -223632520#2 -223632520#1 -223632525#0"/>
    </vehicle>
    <vehicle id="veh126" depart="246.96" departLane="best" departPos="random" departSpeed="max">
        <route edges="223632525#0 223632525#1 -258728090#4 258728090#4"/>
    </vehicle>
    <vehicle id="veh127" depart="248.92" departLane="best" departPos="random" departSpeed="max">
        <route edges="258728090#3 258728090#4 -223632525#2 223632520#1 E1"/>
    </vehicle>
    <vehicle id="veh128" depart="250.88" departLane="best" departPos="random" departSpeed="max">
        <route edges="258728090#4 -E1 -223632520#1 223632525#1"/>
    </vehicle>
    <vehicle id="veh129" depart="252.84" departLane="best" departPos="random" departSpeed="max">
        <route edges="-E4 649064896#1 -258728090#2 -258728090#0"/>
    </vehicle>
    <vehicle id="veh130" depart="254.80" departLane="best" departPos="random" departSpeed="max">
        <route edges="-258728090#3"/>
    </vehicle>
    <vehicle id="veh133" depart="260.68" departLane="best" departPos="random" departSpeed="max">
        <route edges="-223632525#2 223632520#1 223632520#2 E3 649040853#1 -223632522"/>
    </vehicle>
    <vehicle id="veh134" depart="262.64" departLane="best" departPos="random" departSpeed="max">
        <route edges="-E3 -E2 -649064895 649064896#1 -258728090#2 -258728090#0 671642282 223632526"/>
    </vehicle>
    <vehicle id="veh135" depart="264.60" departLane="best" departPos="random" departSpeed="max">
        <route edges="223632525#1 -E1 649036317#3"/>
    </vehicle>
    <vehicle id="veh136" depart="266.56" departLane="best" departPos="random" departSpeed="max">
        <route edges="223632522 -649040853#1"/>
    </vehicle>
    <vehicle id="veh137" depart="268.52" departLane="best" departPos="random" departSpeed="max">
        <route edges="258728090#0 223632517 -E3 -223632520#2 649036317#3"/>
    </vehicle>
    <vehicle id="veh138" depart="270.48" departLane="best" departPos="random" departSpeed="max">
        <route edges="223632520#0 223632525#1 -258728090#4 258728090#4"/>
    </vehicle>
    <vehicle id="veh139" depart="272.44" departLane="best" departPos="random" departSpeed="max">
        <route edges="-223632526 -671642282 258728090#0 258728090#1 -649064896#1 E4 -258728090#3"/>
    </vehicle>
    <vehicle id="veh140" depart="274.40" departLane="best" departPos="random" departSpeed="max">
        <route edges="E3 -223632517 258728090#1 -649064896#1 649064896#1 -258728090#2"/>
    </vehicle>
    <vehicle id="veh141" depart="276.36" departLane="best" departPos="random" departSpeed="max">
        <route edges="E3 -223632517 258728090#1 -649064896#1 E4"/>
    </vehicle>
    <vehicle id="veh142" depart="278.32" departLane="best" departPos="random" departSpeed="max">
        <route edges="-258728090#3 -649064896#1 649064895 E2 -223632520#2 E1"/>
    </vehicle>
    <vehicle id="veh143" depart="280.28" departLane="best" departPos="random" departSpeed="max">
        <route edges="223632520#2 -E2 -649064895 649064895 E2 -223632520#2 E1"/>
    </vehicle>
    <vehicle id="veh144" depart="282.24" departLane="best" departPos="random" departSpeed="max">
        <route edges="-258728090#3 -649064896#1 649064895 E2 -223632520#2 649036317#3"/>
    </vehicle>
    <vehicle id="veh145" depart="284.20" departLane="best" departPos="random" departSpeed="max">
        <route edges="223632525#0 223632520#1 223632520#2 E3 649040853#1"/>
    </vehicle>
    <vehicle id="veh146" depart="286.16" departLane="best" departPos="random" departSpeed="max">
        <route edges="223632522 -649040853#1 -E3"/>
    </vehicle>
    <vehicle id="veh147" depart="288.12" departLane="best" departPos="random" departSpeed="max">
        <route edges="649064896#1 258728090#3 258728090#4 -223632525#2 223632520#1 E1"/>
    </vehicle>
    <vehicle id="veh148" depart="290.08" departLane="best" departPos="random" departSpeed="max">
        <route edges="223632520#1 E1 -258728090#4 -258728090#3"/>
    </vehicle>
    <vehicle id="veh149" depart="292.04" departLane="best" departPos="random" departSpeed="max">
        <route edges="223632522 -649040853#1 -E3 -223632520#2 E1"/>
    </vehicle>
    <vehicle id="veh150" depart="294.00" departLane="best" departPos="random" departSpeed="max">
        <route edges="-258728090#2 223632517 -E3 -E2 -649064895 E4 258728090#4 -223632525#2 223632520#1"/>
    </vehicle>
    <vehicle id="veh151" depart="295.96" departLane="best" departPos="random" departSpeed="max">
        <route edges="-223632520#1 223632525#1 -258728090#4 258728090#4"/>
    </vehicle>
    <vehicle id="veh152" depart="297.92" departLane="best" departPos="random" departSpeed="max">
        <route edges="-223632526 -671642282 258728090#0 223632517 -E3 -223632520#2"/>
    </vehicle>
    <vehicle id="veh153" depart="299.88" departLane="best" departPos="random" departSpeed="max">
        <route edges="-144943776 -649040853#1 -E3 -223632520#2 E1 -258728090#4 -E4"/>
    </vehicle>
    <vehicle id="veh154" depart="301.84" departLane="best" departPos="random" departSpeed="max">
        <route edges="258728090#0 258728090#1 -649064896#1"/>
    </vehicle>
    <vehicle id="veh156" depart="305.76" departLane="best" departPos="random" departSpeed="max">
        <route edges="-649040853#1 -E3 -223632520#2 -223632520#1 -223632525#0"/>
    </vehicle>
    <vehicle id="veh157" depart="307.72" departLane="best" departPos="random" departSpeed="max">
        <route edges="-258728090#4 258728090#4 -E1 -223632520#1"/>
    </vehicle>
    <vehicle id="veh158" depart="309.68" departLane="best" departPos="random" departSpeed="max">
        <route edges="-649064896#1 649064896#1 -258728090#2 -258728090#0 671642282 223632526"/>
    </vehicle>
    <vehicle id="veh159" depart="311.64" departLane="best" departPos="random" departSpeed="max">
        <route edges="E4 258728090#4 -E1 223632520#2 E3 649040853#1 -223632522"/>
    </vehicle>
    <vehicle id="veh160" depart="313.60" departLane="best" departPos="random" departSpeed="max">
        <route edges="223632520#0 223632520#1 649036317#3"/>
    </vehicle>
    <vehicle id="veh161" depart="315.56" departLane="best" departPos="random" departSpeed="max">
        <route edges="-223632526 -671642282 258728090#0 223632517 -E3 -223632520#2"/>
    </vehicle>
    <vehicle id="veh162" depart="317.52" departLane="best" departPos="random" departSpeed="max">
        <route edges="-649064896#1 649064895 E2 -223632520#2 E1 -258728090#4"/>
    </vehicle>
    <vehicle id="veh163" depart="319.48" departLane="best" departPos="random" departSpeed="max">
        <route edges="258728090#4 -E1 223632520#2 -E2 -649064895 649064896#1"/>
    </vehicle>
    <vehicle id="veh165" depart="323.40" departLane="best" departPos="random" departSpeed="max">
        <route edges="E2 -223632520#2 E1 -258728090#4 -258728090#3 -258728090#2"/>
    </vehicle>
    <vehicle id="veh166" depart="325.36" departLane="best" departPos="random" departSpeed="max">
        <route edges="-223632520#1 -223632525#0"/>
    </vehicle>
    <vehicle id="veh167" depart="327.32" departLane="best" departPos="random" departSpeed="max">
        <route edges="E2 E3 -223632517 -258728090#0 671642282 223632526"/>
    </vehicle>
    <vehicle id="veh168" depart="329.28" departLane="best" departPos="random" departSpeed="max">
        <route edges="-E4 649064895 E2 E3 649040853#1 649040853#2"/>
    </vehicle>
    <vehicle id="veh169" depart="331.24" departLane="best" departPos="random" departSpeed="max">
        <route edges="649040853#1 649040853#2"/>
    </vehicle>
    <vehicle id="veh170" depart="333.20" departLane="best" departPos="random" departSpeed="max">
        <route edges="223632520#2 E3 -223632517 258728090#1"/>
    </vehicle>
    <vehicle id="veh172" depart="337.12" departLane="best" departPos="random" departSpeed="max">
        <route edges="258728090#4 -223632525#2 223632520#1"/>
    </vehicle>
    <vehicle id="veh174" depart="341.04" departLane="best" departPos="random" departSpeed="max">
        <route edges="E4 258728090#4 -223632525#2 -223632525#0"/>
    </vehicle>
    <vehicle id="veh175" depart="343.00" departLane="best" departPos="random" departSpeed="max">
        <route edges="649064895 E2 E3 649040853#1 649040853#2"/>
    </vehicle>
    <vehicle id="veh176" depart="344.96" departLane="best" departPos="random" departSpeed="max">