<?xml version="1.0" encoding="UTF-8"?>

<!-- generated on 2025-05-11 05:46:12.897237 by randomTrips.py v1_22_0+0002-63e50f52594
<configuration>
    <net-file value="E:/licenta/oras-mic/2025-05-08-13-35-40\osm.net.xml"/>
    <output-trip-file value="E:/licenta/oras-mic/2025-05-08-13-35-40\trips.trips.xml"/>
    <route-file value="E:/licenta/oras-mic/2025-05-08-13-35-40\generated_routes\routes_worker3_52291340.rou.xml"/>
    <prefix value="veh"/>
    <trip-attributes value="departLane=&quot;best&quot; departSpeed=&quot;max&quot; departPos=&quot;random&quot;"/>
    <fringe-factor value="3.1"/>
    <seed value="76739"/>
    <end value="600.0"/>
    <period value="2.4"/>
</configuration>
-->

<!-- generated on 2025-05-11 05:46:12 by Eclipse SUMO duarouter Version 1.22.0
<duarouterConfiguration xmlns:xsi="http://www.w3.org/2001/XMLSchema-instance" xsi:noNamespaceSchemaLocation="http://sumo.dlr.de/xsd/duarouterConfiguration.xsd">

    <input>
        <net-file value="E:/licenta/oras-mic/2025-05-08-13-35-40\osm.net.xml"/>
        <route-files value="E:/licenta/oras-mic/2025-05-08-13-35-40\trips.trips.xml"/>
    </input>

    <output>
        <output-file value="E:/licenta/oras-mic/2025-05-08-13-35-40\generated_routes\routes_worker3_52291340.rou.xml"/>
        <alternatives-output value="NUL"/>
    </output>

    <time>
        <begin value="0"/>
        <end value="600.0"/>
    </time>

    <report>
        <no-warnings value="true"/>
        <ignore-errors value="true"/>
        <no-step-log value="true"/>
    </report>

</duarouterConfiguration>
-->

<routes xmlns:xsi="http://www.w3.org/2001/XMLSchema-instance" xsi:noNamespaceSchemaLocation="http://sumo.dlr.de/xsd/routes_file.xsd">
    <vehicle id="veh0" depart="0.00" departLane="best" departPos="random" departSpeed="max">
        <route edges="223632520#2 -E2 -649064895 E4 258728090#4 -E1 649036317#3"/>
    </vehicle>
    <vehicle id="veh2" depart="4.00" departLane="best" departPos="random" departSpeed="max">
        <route edges="-E4 649064895 E2"/>
    </vehicle>
    <vehicle id="veh3" depart="6.00" departLane="best" departPos="random" departSpeed="max">
        <route edges="-649036317#3 223632520#2 E3 649040853#1 -223632522"/>
    </vehicle>
    <vehicle id="veh4" depart="8.00" departLane="best" departPos="random" departSpeed="max">
        <route edges="649064896#1 258728090#3 258728090#4 -223632525#2"/>
    </vehicle>
    <vehicle id="veh5" depart="10.00" departLane="best" departPos="random" departSpeed="max">
        <route edges="223632522 -649040853#1 -E3 -223632520#2"/>
    </vehicle>
    <vehicle id="veh6" depart="12.00" departLane="best" departPos="random" departSpeed="max">
        <route edges="649064896#1 258728090#3 258728090#4 -223632525#2 -223632520#0"/>
    </vehicle>
    <vehicle id="veh7" depart="14.00" departLane="best" departPos="random" departSpeed="max">
        <route edges="-258728090#3 -649064896#1 649064895 E2 E3 649040853#1 -223632522"/>
    </vehicle>
    <vehicle id="veh8" depart="16.00" departLane="best" departPos="random" departSpeed="max">
        <route edges="E3 -223632517 258728090#1 258728090#3 258728090#4 -E1 -223632520#1 223632525#1"/>
    </vehicle>
    <vehicle id="veh9" depart="18.00" departLane="best" departPos="random" departSpeed="max">
        <route edges="223632520#0 223632520#1 223632520#2 -E2"/>
    </vehicle>
    <vehicle id="veh10" depart="20.00" departLane="best" departPos="random" departSpeed="max">
        <route edges="223632520#1 223632520#2 E3 -223632517 -258728090#0 671642282 223632526"/>
    </vehicle>
    <vehicle id="veh11" depart="22.00" departLane="best" departPos="random" departSpeed="max">
        <route edges="223632520#0 223632525#1 -E1 -223632520#1"/>
    </vehicle>
    <vehicle id="veh12" depart="24.00" departLane="best" departPos="random" departSpeed="max">
        <route edges="-223632520#2 E1 -258728090#4 -258728090#3 -258728090#2 -258728090#0 671642282 223632526"/>
    </vehicle>
    <vehicle id="veh13" depart="26.00" departLane="best" departPos="random" departSpeed="max">
        <route edges="-223632526 -671642282 258728090#0 258728090#1 -649064896#1"/>
    </vehicle>
    <vehicle id="veh14" depart="28.00" departLane="best" departPos="random" departSpeed="max">
        <route edges="223632522 -649040853#1 -E3 -223632520#2 E1 -258728090#4 -E4"/>
    </vehicle>
    <vehicle id="veh15" depart="30.00" departLane="best" departPos="random" departSpeed="max">
        <route edges="-223632526 -671642282 258728090#0 258728090#1 258728090#3 -E4"/>
    </vehicle>
    <vehicle id="veh17" depart="34.00" departLane="best" departPos="random" departSpeed="max">
        <route edges="223632525#0 223632520#1 E1 -223632525#2 -223632525#0"/>
    </vehicle>
    <vehicle id="veh18" depart="36.00" departLane="best" departPos="random" departSpeed="max">
        <route edges="223632522 -649040853#1 -E3 -223632520#2 649036317#3"/>
    </vehicle>
    <vehicle id="veh19" depart="38.00" departLane="best" departPos="random" departSpeed="max">
        <route edges="-223632526 -671642282 258728090#0 223632517 649040853#1"/>
    </vehicle>
    <vehicle id="veh20" depart="40.00" departLane="best" departPos="random" departSpeed="max">
        <route edges="-E1 649036317#3"/>
    </vehicle>
    <vehicle id="veh22" depart="44.00" departLane="best" departPos="random" departSpeed="max">
        <route edges="-649064896#1 649064895 E2 -223632520#2 649036317#3"/>
    </vehicle>
    <vehicle id="veh23" depart="46.00" departLane="best" departPos="random" departSpeed="max">
        <route edges="-144943776 -649040853#1 -E3 -223632520#2 -223632520#1 -223632520#0"/>
    </vehicle>
    <vehicle id="veh24" depart="48.00" departLane="best" departPos="random" departSpeed="max">
        <route edges="-258728090#2 223632517 649040853#1 649040853#2"/>
    </vehicle>
    <vehicle id="veh25" depart="50.00" departLane="best" departPos="random" departSpeed="max">
        <route edges="E2 E3"/>
    </vehicle>
    <vehicle id="veh26" depart="52.00" departLane="best" departPos="random" departSpeed="max">
        <route edges="223632522 -649040853#1 -E3 -223632520#2 -223632520#1 -223632520#0"/>
    </vehicle>
    <vehicle id="veh27" depart="54.00" departLane="best" departPos="random" departSpeed="max">
        <route edges="E1 -258728090#4 -E4 649064895 E2 E3"/>
    </vehicle>
    <vehicle id="veh28" depart="56.00" departLane="best" departPos="random" departSpeed="max">
        <route edges="E4 258728090#4 -223632525#2"/>
    </vehicle>
    <vehicle id="veh29" depart="58.00" departLane="best" departPos="random" departSpeed="max">
        <route edges="223632525#0 -223632520#0"/>
    </vehicle>
    <vehicle id="veh30" depart="60.00" departLane="best" departPos="random" departSpeed="max">
        <route edges="-144943776 -649040853#1 -E3 -E2 -649064895 649064895 E2"/>
    </vehicle>
    <vehicle id="veh31" depart="62.00" departLane="best" departPos="random" departSpeed="max">
        <route edges="649040853#1 -223632522"/>
    </vehicle>
    <vehicle id="veh32" depart="64.00" departLane="best" departPos="random" departSpeed="max">
        <route edges="258728090#4 -223632525#2 -223632520#0"/>
    </vehicle>
    <vehicle id="veh33" depart="66.00" departLane="best" departPos="random" departSpeed="max">
        <route edges="-258728090#2 223632517 -E3 -E2 -649064895 E4 258728090#4 -223632525#2 223632520#1"/>
    </vehicle>
    <vehicle id="veh34" depart="68.00" departLane="best" departPos="random" departSpeed="max">
        <route edges="-223632517 258728090#1 258728090#3 258728090#4 -223632525#2 -223632520#0"/>
    </vehicle>
    <vehicle id="veh37" depart="74.00" departLane="best" departPos="random" departSpeed="max">
        <route edges="-258728090#0"/>
    </vehicle>
    <vehicle id="veh38" depart="76.00" departLane="best" departPos="random" departSpeed="max">
        <route edges="223632520#0 223632525#1 -258728090#4 -E4 649064896#1 258728090#3"/>
    </vehicle>
    <vehicle id="veh39" depart="78.00" departLane="best" departPos="random" departSpeed="max">
        <route edges="E1 -258728090#4 258728090#4 -E1"/>
    </vehicle>
    <vehicle id="veh40" depart="80.00" departLane="best" departPos="random" departSpeed="max">
        <route edges="258728090#0 258728090#1 258728090#3 258728090#4 -E1 223632520#2"/>
    </vehicle>
    <vehicle id="veh42" depart="84.00" departLane="best" departPos="random" departSpeed="max">
        <route edges="223632525#0 223632525#1 -258728090#4 -258728090#3 -258728090#2"/>
    </vehicle>
    <vehicle id="veh43" depart="86.00" departLane="best" departPos="random" departSpeed="max">
        <route edges="258728090#3 -258728090#3 -649064896#1"/>
    </vehicle>
    <vehicle id="veh44" depart="88.00" departLane="best" departPos="random" departSpeed="max">
        <route edges="-223632517 258728090#1 -649064896#1 649064895 E2 E3 649040853#1 -223632522"/>
    </vehicle>
    <vehicle id="veh45" depart="90.00" departLane="best" departPos="random" departSpeed="max">
        <route edges="-671642282 258728090#0 223632517 -E3 -223632520#2 649036317#3"/>
    </vehicle>
    <vehicle id="veh46" depart="92.00" departLane="best" departPos="random" departSpeed="max">
        <route edges="671642282 223632526"/>
    </vehicle>
    <vehicle id="veh47" depart="94.00" departLane="best" departPos="random" departSpeed="max">
        <route edges="-223632520#2 E1 -258728090#4 -E4 649064895 E2 E3 649040853#1 649040853#2"/>
    </vehicle>
    <vehicle id="veh48" depart="96.00" departLane="best" departPos="random" departSpeed="max">
        <route edges="E3 -223632517 258728090#1 258728090#3 258728090#4 -223632525#2 223632520#1"/>
    </vehicle>
    <vehicle id="veh49" depart="98.00" departLane="best" departPos="random" departSpeed="max">
        <route edges="223632525#0 223632525#1 -258728090#4"/>
    </vehicle>
    <vehicle id="veh50" depart="100.00" departLane="best" departPos="random" departSpeed="max">
        <route edges="-E3 -E2 -649064895 649064895 E2"/>
    </vehicle>
    <vehicle id="veh51" depart="102.00" departLane="best" departPos="random" departSpeed="max">
        <route edges="-649064896#1 E4"/>
    </vehicle>
    <vehicle id="veh52" depart="104.00" departLane="best" departPos="random" departSpeed="max">
        <route edges="223632520#0 223632525#1 -258728090#4 -E4 649064896#1"/>
    </vehicle>
    <vehicle id="veh53" depart="106.00" departLane="best" departPos="random" departSpeed="max">
        <route edges="-649064895 E4 258728090#4 -E1 649036317#3"/>
    </vehicle>
    <vehicle id="veh54" depart="108.00" departLane="best" departPos="random" departSpeed="max">
        <route edges="-649036317#3 E1 -258728090#4 -258728090#3"/>
    </vehicle>
    <vehicle id="veh55" depart="110.00" departLane="best" departPos="random" departSpeed="max">
        <route edges="-E1 223632520#2 -E2 -649064895 649064895"/>
    </vehicle>
    <vehicle id="veh56" depart="112.00" departLane="best" departPos="random" departSpeed="max">
        <route edges="223632520#0 223632520#1 223632520#2 -E2"/>
    </vehicle>
    <vehicle id="veh57" depart="114.00" departLane="best" departPos="random" departSpeed="max">
        <route edges="223632520#0 223632525#1 -258728090#4 -258728090#3"/>
    </vehicle>
    <vehicle id="veh58" depart="116.00" departLane="best" departPos="random" departSpeed="max">
        <route edges="-E1 223632520#2 E3 -223632517 -258728090#0"/>
    </vehicle>
    <vehicle id="veh59" depart="118.00" departLane="best" departPos="random" departSpeed="max">
        <route edges="258728090#1 258728090#3 258728090#4 -223632525#2 -223632525#0"/>
    </vehicle>
    <vehicle id="veh60" depart="120.00" departLane="best" departPos="random" departSpeed="max">
        <route edges="-223632520#2 E1 -258728090#4 -E4 649064896#1 258728090#3"/>
    </vehicle>
    <vehicle id="veh61" depart="122.00" departLane="best" departPos="random" departSpeed="max">
        <route edges="-E3 -223632520#2 649036317#3"/>
    </vehicle>
    <vehicle id="veh62" depart="124.00" departLane="best" departPos="random" departSpeed="max">
        <route edges="E4 258728090#4 -223632525#2 -223632525#0"/>
    </vehicle>
    <vehicle id="veh63" depart="126.00" departLane="best" departPos="random" departSpeed="max">
        <route edges="258728090#0 223632517 649040853#1 -223632522"/>
    </vehicle>
    <vehicle id="veh64" depart="128.00" departLane="best" departPos="random" departSpeed="max">
        <route edges="E1 -258728090#4 -E4"/>
    </vehicle>
    <vehicle id="veh65" depart="130.00" departLane="best" departPos="random" departSpeed="max">
        <route edges="223632520#0 223632525#1 -258728090#4 -E4 649064896#1 258728090#3"/>
    </vehicle>
    <vehicle id="veh66" depart="132.00" departLane="best" departPos="random" departSpeed="max">
        <route edges="258728090#4 -E1 223632520#2 E3 -223632517 -258728090#0"/>
    </vehicle>
    <vehicle id="veh67" depart="134.00" departLane="best" departPos="random" departSpeed="max">
        <route edges="E1 -223632525#2 -223632520#0"/>
    </vehicle>
    <vehicle id="veh68" depart="136.00" departLane="best" departPos="random" departSpeed="max">
        <route edges="223632520#0 223632525#1 -258728090#4 -258728090#3 -649064896#1"/>
    </vehicle>
    <vehicle id="veh69" depart="138.00" departLane="best" departPos="random" departSpeed="max">
        <route edges="-144943776 -649040853#1 -223632517"/>
    </vehicle>
    <vehicle id="veh70" depart="140.00" departLane="best" departPos="random" departSpeed="max">
        <route edges="-223632520#1 223632525#1 -258728090#4 258728090#4 -223632525#2 223632520#1 E1"/>
    </vehicle>
    <vehicle id="veh71" depart="142.00" departLane="best" departPos="random" departSpeed="max">
        <route edges="223632522 -649040853#1 -E3 -E2 -649064895 E4 -258728090#3"/>
    </vehicle>
    <vehicle id="veh72" depart="144.00" departLane="best" departPos="random" departSpeed="max">
        <route edges="223632522 -649040853#1 -E3 -E2 -649064895 649064895 E2 E3 649040853#1 -223632522"/>
    </vehicle>
    <vehicle id="veh74" depart="148.00" departLane="best" departPos="random" departSpeed="max">
        <route edges="E4 258728090#4 -E1 649036317#3"/>
    </vehicle>
    <vehicle id="veh75" depart="150.00" departLane="best" departPos="random" departSpeed="max">
        <route edges="223632520#0 -223632525#0"/>
    </vehicle>
    <vehicle id="veh76" depart="152.00" departLane="best" departPos="random" departSpeed="max">
        <route edges="-223632525#2 223632520#1 223632520#2 E3 649040853#1 -223632522"/>
    </vehicle>
    <vehicle id="veh77" depart="154.00" departLane="best" departPos="random" departSpeed="max">
        <route edges="-E4 649064895 -649064895 E4 -258728090#3 -649064896#1"/>
    </vehicle>
    <vehicle id="veh78" depart="156.00" departLane="best" departPos="random" departSpeed="max">
        <route edges="E2 -223632520#2 E1 -258728090#4 -E4 649064895 -649064895"/>
    </vehicle>
    <vehicle id="veh79" depart="158.00" departLane="best" departPos="random" departSpeed="max">
        <route edges="-223632517 258728090#1 258728090#3 258728090#4 -E1 649036317#3"/>
    </vehicle>
    <vehicle id="veh80" depart="160.00" departLane="best" departPos="random" departSpeed="max">
        <route edges="649064895 E2 -223632520#2 E1 -258728090#4"/>
    </vehicle>
    <vehicle id="veh82" depart="164.00" departLane="best" departPos="random" departSpeed="max">
        <route edges="-223632525#2 223632520#1 223632520#2 E3 649040853#1 -223632522"/>
    </vehicle>
    <vehicle id="veh83" depart="166.00" departLane="best" departPos="random" departSpeed="max">
        <route edges="-E3 -E2 -649064895 649064896#1 -258728090#2 -258728090#0 671642282 223632526"/>
    </vehicle>
    <vehicle id="veh84" depart="168.00" departLane="best" departPos="random" departSpeed="max">
        <route edges="-223632517 258728090#1 258728090#3 258728090#4 -E1 649036317#3"/>
    </vehicle>
    <vehicle id="veh85" depart="170.00" departLane="best" departPos="random" departSpeed="max">
        <route edges="223632525#0 223632525#1 -258728090#4 -E4 649064895"/>
    </vehicle>
    <vehicle id="veh86" depart="172.00" departLane="best" departPos="random" departSpeed="max">
        <route edges="-649036317#3 E1 -258728090#4 258728090#4"/>
    </vehicle>
    <vehicle id="veh87" depart="174.00" departLane="best" departPos="random" departSpeed="max">
        <route edges="258728090#3 258728090#4 -223632525#2 -223632525#0"/>
    </vehicle>
    <vehicle id="veh88" depart="176.00" departLane="best" departPos="random" departSpeed="max">
        <route edges="E1 -223632525#2 223632520#1 223632520#2"/>
    </vehicle>
    <vehicle id="veh89" depart="178.00" departLane="best" departPos="random" departSpeed="max">
        <route edges="-671642282 258728090#0 223632517 649040853#1"/>
    </vehicle>
    <vehicle id="veh93" depart="186.00" departLane="best" departPos="random" departSpeed="max">
        <route edges="-649064896#1 E4 258728090#4 -223632525#2 -223632520#0"/>
    </vehicle>
    <vehicle id="veh94" depart="188.00" departLane="best" departPos="random" departSpeed="max">
        <route edges="223632520#0 223632520#1 E1 -223632525#2 -223632520#0"/>
    </vehicle>
    <vehicle id="veh95" depart="190.00" departLane="best" departPos="random" departSpeed="max">
        <route edges="223632520#2 -E2 -649064895 E4 258728090#4 -E1 649036317#3"/>
    </vehicle>
    <vehicle id="veh96" depart="192.00" departLane="best" departPos="random" departSpeed="max">
        <route edges="223632522 -649040853#1 -223632517 -258728090#0 671642282 223632526"/>
    </vehicle>
    <vehicle id="veh98" depart="196.00" departLane="best" departPos="random" departSpeed="max">
        <route edges="-144943776 -649040853#1 -E3 -223632520#2 -223632520#1"/>
    </vehicle>
    <vehicle id="veh99" depart="198.00" departLane="best" departPos="random" departSpeed="max">
        <route edges="-223632520#1 -223632520#0"/>
    </vehicle>
    <vehicle id="veh100" depart="200.00" departLane="best" departPos="random" departSpeed="max">
        <route edges="223632520#2 -E2 -649064895 E4 258728090#4 -E1"/>
    </vehicle>
    <vehicle id="veh101" depart="202.00" departLane="best" departPos="random" departSpeed="max">
        <route edges="223632525#0 223632520#1 E1 -223632525#2"/>
    </vehicle>
    <vehicle id="veh102" depart="204.00" departLane="best" departPos="random" departSpeed="max">
        <route edges="-E4 649064895 E2 -223632520#2 -223632520#1 -223632520#0"/>
    </vehicle>
    <vehicle id="veh104" depart="208.00" departLane="best" departPos="random" departSpeed="max">
        <route edges="-671642282 258728090#0 258728090#1 -649064896#1 649064896#1 -258728090#2 -258728090#0 671642282 223632526"/>
    </vehicle>
    <vehicle id="veh105" depart="210.00" departLane="best" departPos="random" departSpeed="max">
        <route edges="223632525#0 223632520#1 223632520#2 E3 649040853#1"/>
    </vehicle>
    <vehicle id="veh106" depart="212.00" departLane="best" departPos="random" departSpeed="max">
        <route edges="223632520#0 223632525#1 -258728090#4 -258728090#3"/>
    </vehicle>
    <vehicle id="veh107" depart="214.00" departLane="best" departPos="random" departSpeed="max">
        <route edges="223632520#0 223632520#1 223632520#2 E3 -223632517 258728090#1"/>
    </vehicle>
    <vehicle id="veh109" depart="218.00" departLane="best" departPos="random" departSpeed="max">
        <route edges="-649064896#1 E4 -258728090#3"/>
    </vehicle>
    <vehicle id="veh110" depart="220.00" departLane="best" departPos="random" departSpeed="max">
        <route edges="-144943776 -223632522"/>
    </vehicle>
    <vehicle id="veh111" depart="222.00" departLane="best" departPos="random" departSpeed="max">
        <route edges="-144943776 -649040853#1 -E3 -223632520#2 649036317#3"/>
    </vehicle>
    <vehicle id="veh112" depart="224.00" departLane="best" departPos="random" departSpeed="max">
        <route edges="E3 -223632517 258728090#1 258728090#3"/>
    </vehicle>
    <vehicle id="veh113" depart="226.00" departLane="best" departPos="random" departSpeed="max">
        <route edges="223632517 -E3 -E2 -649064895 649064896#1 -258728090#2"/>
    </vehicle>
    <vehicle id="veh115" depart="230.00" departLane="best" departPos="random" departSpeed="max">
        <route edges="-649064895 649064895 E2 E3 -223632517 258728090#1"/>
    </vehicle>
    <vehicle id="veh116" depart="232.00" departLane="best" departPos="random" departSpeed="max">
        <route edges="E1 -223632525#2 -223632525#0"/>
    </vehicle>
    <vehicle id="veh117" depart="234.00" departLane="best" departPos="random" departSpeed="max">
        <route edges="E4 258728090#4"/>
    </vehicle>
    <vehicle id="veh118" depart="236.00" departLane="best" departPos="random" departSpeed="max">
        <route edges="223632517 -E3 -223632520#2"/>
    </vehicle>
    <vehicle id="veh119" depart="238.00" departLane="best" departPos="random" departSpeed="max">
        <route edges="258728090#3 258728090#4 -223632525#2 -223632525#0"/>
    </vehicle>
    <vehicle id="veh120" depart="240.00" departLane="best" departPos="random" departSpeed="max">
        <route edges="258728090#1 -649064896#1 E4"/>
    </vehicle>
    <vehicle id="veh121" depart="242.00" departLane="best" departPos="random" departSpeed="max">
        <route edges="-144943776 -649040853#1 -223632517 -258728090#0 671642282 223632526"/>
    </vehicle>
    <vehicle id="veh122" depart="244.00" departLane="best" departPos="random" departSpeed="max">
        <route edges="223632525#0 223632525#1 -258728090#4 -258728090#3 -649064896#1"/>
    </vehicle>
    <vehicle id="veh123" depart="246.00" departLane="best" departPos="random" departSpeed="max">
        <route edges="649064895 E2 E3 649040853#1 649040853#2"/>
    </vehicle>
    <vehicle id="veh124" depart="248.00" departLane="best" departPos="random" departSpeed="max">
        <route edges="E3 -223632517 258728090#1 258728090#3 258728090#4 -223632525#2 -223632520#0"/>
    </vehicle>
    <vehicle id="veh125" depart="250.00" departLane="best" departPos="random" departSpeed="max">
        <route edges="649040853#1 649040853#2"/>
    </vehicle>
    <vehicle id="veh126" depart="252.00" departLane="best" departPos="random" departSpeed="max">
        <route edges="223632517 -E3 -E2 -649064895 649064896#1 -258728090#2 -258728090#0 671642282"/>
    </vehicle>
    <vehicle id="veh127" depart="254.00" departLane="best" departPos="random" departSpeed="max">
        <route edges="-223632517 258728090#1 258728090#3 258728090#4 -E1 649036317#3"/>
    </vehicle>
    <vehicle id="veh128" depart="256.00" departLane="best" departPos="random" departSpeed="max">
        <route edges="-E4 649064896#1 258728090#3 258728090#4 -223632525#2 223632520#1"/>
    </vehicle>
    <vehicle id="veh129" depart="258.00" departLane="best" departPos="random" departSpeed="max">
        <route edges="-223632526 -671642282 258728090#0 258728090#1 -649064896#1 649064896#1 -258728090#2 -258728090#0 671642282 223632526"/>
    </vehicle>
    <vehicle id="veh130" depart="260.00" departLane="best" departPos="random" departSpeed="max">
        <route edges="223632520#2 E3 649040853#1 -223632522"/>
    </vehicle>
    <vehicle id="veh131" depart="262.00" departLane="best" departPos="random" departSpeed="max">
        <route edges="-649040853#1 -E3 -E2 -649064895 649064895 E2 E3 649040853#1"/>
    </vehicle>
    <vehicle id="veh132" depart="264.00" departLane="best" departPos="random" departSpeed="max">
        <route edges="223632522 -649040853#1 -E3 -223632520#2 E1 -258728090#4"/>
    </vehicle>
    <vehicle id="veh133" depart="266.00" departLane="best" departPos="random" departSpeed="max">
        <route edges="-144943776 -649040853#1 -E3 -223632520#2 649036317#3"/>
    </vehicle>
    <vehicle id="veh134" depart="268.00" departLane="best" departPos="random" departSpeed="max">
        <route edges="258728090#3 258728090#4 -E1 649036317#3"/>
    </vehicle>
    <vehicle id="veh135" depart="270.00" departLane="best" departPos="random" departSpeed="max">
        <route edges="223632522 -649040853#1 -E3 -223632520#2 E1 -258728090#4 -E4"/>
    </vehicle>
    <vehicle id="veh136" depart="272.00" departLane="best" departPos="random" departSpeed="max">
        <route edges="-649064896#1 649064895 E2 -223632520#2 E1"/>
    </vehicle>
    <vehicle id="veh137" depart="274.00" departLane="best" departPos="random" departSpeed="max">
        <route edges="-258728090#4 -258728090#3 -258728090#2 -258728090#0 671642282"/>
    </vehicle>
    <vehicle id="veh138" depart="276.00" departLane="best" departPos="random" departSpeed="max">
        <route edges="258728090#0 258728090#1 -649064896#1 649064896#1 -258728090#2 -258728090#0 671642282 223632526"/>
    </vehicle>
    <vehicle id="veh140" depart="280.00" departLane="best" departPos="random" departSpeed="max">
        <route edges="-649064896#1 649064895 E2 E3 649040853#1 649040853#2"/>
    </vehicle>
    <vehicle id="veh141" depart="282.00" departLane="best" departPos="random" departSpeed="max">
        <route edges="223632525#0 223632520#1 223632520#2 E3 -223632517 -258728090#0 671642282 223632526"/>
    </vehicle>
    <vehicle id="veh142" depart="284.00" departLane="best" departPos="random" departSpeed="max">
        <route edges="-E1 -223632520#1 223632525#1 -258728090#4 -258728090#3"/>
    </vehicle>
    <vehicle id="veh143" depart="286.00" departLane="best" departPos="random" departSpeed="max">
        <route edges="-223632517 258728090#1 258728090#3 -E4"/>
    </vehicle>
    <vehicle id="veh144" depart="288.00" departLane="best" departPos="random" departSpeed="max">
        <route edges="-649036317#3 E1 -223632525#2 223632520#1 649036317#3"/>
    </vehicle>
    <vehicle id="veh145" depart="290.00" departLane="best" departPos="random" departSpeed="max">
        <route edges="223632517 -E3 -223632520#2 E1"/>
    </vehicle>
    <vehicle id="veh147" depart="294.00" departLane="best" departPos="random" departSpeed="max">
        <route edges="-671642282 258728090#0 223632517 649040853#1 649040853#2"/>
    </vehicle>
    <vehicle id="veh148" depart="296.00" departLane="best" departPos="random" departSpeed="max">
        <route edges="223632520#1 223632520#2 -E2"/>
    </vehicle>
    <vehicle id="veh149" depart="298.00" departLane="best" departPos="random" departSpeed="max">
        <route edges="223632517 649040853#1 -223632522"/>
    </vehicle>
    <vehicle id="veh150" depart="300.00" departLane="best" departPos="random" departSpeed="max">
        <route edges="-258728090#3 -649064896#1 649064895 E2 -223632520#2"/>
    </vehicle>
    <vehicle id="veh151" depart="302.00" departLane="best" departPos="random" departSpeed="max">
        <route edges="258728090#1 258728090#3 -E4"/>
    </vehicle>
    <vehicle id="veh152" depart="304.00" departLane="best" departPos="random" departSpeed="max">
        <route edges="223632522 -649040853#1 -E3 -E2 -649064895 E4 -258728090#3"/>
    </vehicle>
    <vehicle id="veh153" depart="306.00" departLane="best" departPos="random" departSpeed="max">
        <route edges="649064896#1 -258728090#2 -258728090#0 671642282"/>
    </vehicle>
    <vehicle id="veh154" depart="308.00" departLane="best" departPos="random" departSpeed="max">
        <route edges="-144943776 -649040853#1 -E3 -E2 -649064895 E4 -258728090#3"/>
    </vehicle>
    <vehicle id="veh155" depart="310.00" departLane="best" departPos="random" departSpeed="max">
        <route edges="-223632520#2 E1 -258728090#4 -258728090#3 -258728090#2 223632517 -E3"/>
    </vehicle>
    <vehicle id="veh156" depart="312.00" departLane="best" departPos="random" departSpeed="max">
        <route edges="-258728090#4 -258728090#3 -258728090#2 223632517"/>
    </vehicle>
    <vehicle id="veh157" depart="314.00" departLane="best" departPos="random" departSpeed="max">
        <route edges="-E3"/>
    </vehicle>
    <vehicle id="veh158" depart="316.00" departLane="best" departPos="random" departSpeed="max">
        <route edges="223632522 649040853#2"/>
    </vehicle>
    <vehicle id="veh159" depart="318.00" departLane="best" departPos="random" departSpeed="max">
        <route edges="-223632526 -671642282 258728090#0 223632517 -E3 -223632520#2"/>
    </vehicle>
    <vehicle id="veh160" depart="320.00" departLane="best" departPos="random" departSpeed="max">
        <route edges="649064896#1"/>
    </vehicle>
    <vehicle id="veh161" depart="322.00" departLane="best" departPos="random" departSpeed="max">
        <route edges="258728090#3 258728090#4 -223632525#2 223632520#1"/>
    </vehicle>
    <vehicle id="veh163" depart="326.00" departLane="best" departPos="random" departSpeed="max">
        <route edges="649064895 E2 E3 649040853#1 -223632522"/>
    </vehicle>
    <vehicle id="veh164" depart="328.00" departLane="best" departPos="random" departSpeed="max">
        <route edges="223632517 -E3 -E2 -649064895 E4 258728090#4 -E1 223632520#2"/>
    </vehicle>
    <vehicle id="veh165" depart="330.00" departLane="best" departPos="random" departSpeed="max">
        <route edges="E1 -258728090#4 258728090#4 -E1"/>
    </vehicle>
    <vehicle id="veh166" depart="332.00" departLane="best" departPos="random" departSpeed="max">
        <route edges="223632525#0 223632525#1 -258728090#4 -258728090#3"/>
    </vehicle>
    <vehicle id="veh167" depart="334.00" departLane="best" departPos="random" departSpeed="max">
        <route edges="223632525#0 223632525#1 -258728090#4 -E4 649064895 E2"/>
    </vehicle>
    <vehicle id="veh168" depart="336.00" departLane="best" departPos="random" departSpeed="max">
        <route edges="223632520#1 E1 -223632525#2 -223632525#0"/>
    </vehicle>
    <vehicle id="veh169" depart="338.00" departLane="best" departPos="random" departSpeed="max">
        <route edges="-223632517 258728090#1 -649064896#1 649064895 E2 E3 649040853#1 -223632522"/>
    </vehicle>