<?xml version="1.0" encoding="UTF-8"?>

<!-- generated on 2025-05-11 05:06:30.739802 by randomTrips.py v1_22_0+0002-63e50f52594
<configuration>
    <net-file value="E:/licenta/oras-mic/2025-05-08-13-35-40\osm.net.xml"/>
    <output-trip-file value="E:/licenta/oras-mic/2025-05-08-13-35-40\trips.trips.xml"/>
    <route-file value="E:/licenta/oras-mic/2025-05-08-13-35-40\generated_routes\routes_worker4_4e23ac79.rou.xml"/>
    <prefix value="veh"/>
    <trip-attributes value="departLane=&quot;best&quot; departSpeed=&quot;max&quot; departPos=&quot;random&quot;"/>
    <fringe-factor value="1.1"/>
    <seed value="64164"/>
    <end value="600.0"/>
    <period value="1.86"/>
</configuration>
-->

<!-- generated on 2025-05-11 05:06:30 by Eclipse SUMO duarouter Version 1.22.0
<duarouterConfiguration xmlns:xsi="http://www.w3.org/2001/XMLSchema-instance" xsi:noNamespaceSchemaLocation="http://sumo.dlr.de/xsd/duarouterConfiguration.xsd">

    <input>
        <net-file value="E:/licenta/oras-mic/2025-05-08-13-35-40\osm.net.xml"/>
        <route-files value="E:/licenta/oras-mic/2025-05-08-13-35-40\trips.trips.xml"/>
    </input>

    <output>
        <output-file value="E:/licenta/oras-mic/2025-05-08-13-35-40\generated_routes\routes_worker4_4e23ac79.rou.xml"/>
        <alternatives-output value="NUL"/>
    </output>

    <time>
        <begin value="0"/>
        <end value="600.0"/>
    </time>

    <report>
        <no-warnings value="true"/>
        <ignore-errors value="true"/>
        <no-step-log value="true"/>
    </report>

</duarouterConfiguration>
-->

<routes xmlns:xsi="http://www.w3.org/2001/XMLSchema-instance" xsi:noNamespaceSchemaLocation="http://sumo.dlr.de/xsd/routes_file.xsd">
    <vehicle id="veh0" depart="0.00" departLane="best" departPos="random" departSpeed="max">
        <route edges="E2 E3 -223632517 258728090#1 258728090#3"/>
    </vehicle>
    <vehicle id="veh1" depart="1.86" departLane="best" departPos="random" departSpeed="max">
        <route edges="-649040853#1 -E3 -E2 -649064895 E4 258728090#4 -E1 223632520#2"/>
    </vehicle>
    <vehicle id="veh2" depart="3.72" departLane="best" departPos="random" departSpeed="max">
        <route edges="223632525#0 223632525#1 -E1 -223632520#1"/>
    </vehicle>
    <vehicle id="veh3" depart="5.58" departLane="best" departPos="random" departSpeed="max">
        <route edges="258728090#3 258728090#4 -E1 649036317#3"/>
    </vehicle>
    <vehicle id="veh5" depart="9.30" departLane="best" departPos="random" departSpeed="max">
        <route edges="-223632520#2 E1 -258728090#4 -E4 649064895 E2 E3 -223632517 258728090#1"/>
    </vehicle>
    <vehicle id="veh6" depart="11.16" departLane="best" departPos="random" departSpeed="max">
        <route edges="E4 258728090#4 -E1 223632520#2 -E2 -649064895"/>
    </vehicle>
    <vehicle id="veh7" depart="13.02" departLane="best" departPos="random" departSpeed="max">
        <route edges="E4 -258728090#3 -258728090#2 -258728090#0 671642282 223632526"/>
    </vehicle>
    <vehicle id="veh8" depart="14.88" departLane="best" departPos="random" departSpeed="max">
        <route edges="223632520#0 223632520#1 223632520#2 E3 -223632517 -258728090#0"/>
    </vehicle>
    <vehicle id="veh9" depart="16.74" departLane="best" departPos="random" departSpeed="max">
        <route edges="E2"/>
    </vehicle>
    <vehicle id="veh10" depart="18.60" departLane="best" departPos="random" departSpeed="max">
        <route edges="E3 649040853#1"/>
    </vehicle>
    <vehicle id="veh11" depart="20.46" departLane="best" departPos="random" departSpeed="max">
        <route edges="258728090#0 258728090#1 -649064896#1"/>
    </vehicle>
    <vehicle id="veh12" depart="22.32" departLane="best" departPos="random" departSpeed="max">
        <route edges="258728090#3 -E4 649064895 E2 E3 649040853#1 -223632522"/>
    </vehicle>
    <vehicle id="veh13" depart="24.18" departLane="best" departPos="random" departSpeed="max">
        <route edges="-649064895 649064896#1 -258728090#2 -258728090#0 671642282"/>
    </vehicle>
    <vehicle id="veh14" depart="26.04" departLane="best" departPos="random" departSpeed="max">
        <route edges="E3 -223632517 258728090#1 258728090#3 258728090#4 -E1 223632520#2 -E2"/>
    </vehicle>
    <vehicle id="veh15" depart="27.90" departLane="best" departPos="random" departSpeed="max">
        <route edges="258728090#4 -223632525#2"/>
    </vehicle>
    <vehicle id="veh16" depart="29.76" departLane="best" departPos="random" departSpeed="max">
        <route edges="-223632525#2 223632520#1 223632520#2 E3 -223632517 -258728090#0 671642282 223632526"/>
    </vehicle>
    <vehicle id="veh17" depart="31.62" departLane="best" departPos="random" departSpeed="max">
        <route edges="E3 -223632517"/>
    </vehicle>
    <vehicle id="veh18" depart="33.48" departLane="best" departPos="random" departSpeed="max">
        <route edges="258728090#0 258728090#1 258728090#3 -E4"/>
    </vehicle>
    <vehicle id="veh19" depart="35.34" departLane="best" departPos="random" departSpeed="max">
        <route edges="-258728090#2 223632517 -E3 -223632520#2 -223632520#1 -223632520#0"/>
    </vehicle>
    <vehicle id="veh20" depart="37.20" departLane="best" departPos="random" departSpeed="max">
        <route edges="258728090#3 -E4 649064895 E2 E3 -223632517 258728090#1"/>
    </vehicle>
    <vehicle id="veh22" depart="40.92" departLane="best" departPos="random" departSpeed="max">
        <route edges="E2 E3 649040853#1 649040853#2"/>
    </vehicle>
    <vehicle id="veh24" depart="44.64" departLane="best" departPos="random" departSpeed="max">
        <route edges="-258728090#3 -649064896#1 E4 258728090#4 -223632525#2"/>
    </vehicle>
    <vehicle id="veh25" depart="46.50" departLane="best" departPos="random" departSpeed="max">
        <route edges="-649040853#1 -223632517 -258728090#0 671642282"/>
    </vehicle>
    <vehicle id="veh26" depart="48.36" departLane="best" departPos="random" departSpeed="max">
        <route edges="E4 258728090#4 -E1 223632520#2 -E2"/>
    </vehicle>
    <vehicle id="veh28" depart="52.08" departLane="best" departPos="random" departSpeed="max">
        <route edges="223632525#0 223632520#1 223632520#2 -E2"/>
    </vehicle>
    <vehicle id="veh29" depart="53.94" departLane="best" departPos="random" departSpeed="max">
        <route edges="-258728090#4 -258728090#3 -649064896#1"/>
    </vehicle>
    <vehicle id="veh30" depart="55.80" departLane="best" departPos="random" departSpeed="max">
        <route edges="-E3 -E2 -649064895 649064896#1"/>
    </vehicle>
    <vehicle id="veh31" depart="57.66" departLane="best" departPos="random" departSpeed="max">
        <route edges="-649064896#1 649064895 E2 -223632520#2 E1"/>
    </vehicle>
    <vehicle id="veh32" depart="59.52" departLane="best" departPos="random" departSpeed="max">
        <route edges="-144943776 -649040853#1 -E3 -E2 -649064895"/>
    </vehicle>
    <vehicle id="veh33" depart="61.38" departLane="best" departPos="random" departSpeed="max">
        <route edges="-223632520#1 223632525#1 -E1 649036317#3"/>
    </vehicle>
    <vehicle id="veh34" depart="63.24" departLane="best" departPos="random" departSpeed="max">
        <route edges="E3 -223632517 258728090#1 -649064896#1"/>
    </vehicle>
    <vehicle id="veh35" depart="65.10" departLane="best" departPos="random" departSpeed="max">
        <route edges="223632520#1"/>
    </vehicle>
    <vehicle id="veh37" depart="68.82" departLane="best" departPos="random" departSpeed="max">
        <route edges="E3 -223632517 258728090#1 -649064896#1 649064896#1 -258728090#2 223632517"/>
    </vehicle>
    <vehicle id="veh39" depart="72.54" departLane="best" departPos="random" departSpeed="max">
        <route edges="-E1 223632520#2 -E2 -649064895 649064896#1 -258728090#2"/>
    </vehicle>
    <vehicle id="veh40" depart="74.40" departLane="best" departPos="random" departSpeed="max">
        <route edges="-E2 -649064895 649064895 E2 -223632520#2"/>
    </vehicle>
    <vehicle id="veh41" depart="76.26" departLane="best" departPos="random" departSpeed="max">
        <route edges="-649040853#1 -223632517"/>
    </vehicle>
    <vehicle id="veh42" depart="78.12" departLane="best" departPos="random" departSpeed="max">
        <route edges="-258728090#4 -258728090#3 -258728090#2 -258728090#0 671642282 223632526"/>
    </vehicle>
    <vehicle id="veh43" depart="79.98" departLane="best" departPos="random" departSpeed="max">
        <route edges="-258728090#3 -649064896#1 649064895 E2 -223632520#2 -223632520#1"/>
    </vehicle>
    <vehicle id="veh44" depart="81.84" departLane="best" departPos="random" departSpeed="max">
        <route edges="223632520#1 223632520#2 -E2 -649064895 649064895 E2 -223632520#2"/>
    </vehicle>
    <vehicle id="veh45" depart="83.70" departLane="best" departPos="random" departSpeed="max">
        <route edges="258728090#4 -E1 223632520#2 -E2 -649064895 E4"/>
    </vehicle>
    <vehicle id="veh46" depart="85.56" departLane="best" departPos="random" departSpeed="max">
        <route edges="-223632520#2 E1 -258728090#4 -E4 649064895 E2"/>
    </vehicle>
    <vehicle id="veh48" depart="89.28" departLane="best" departPos="random" departSpeed="max">
        <route edges="258728090#3 258728090#4 -E1 -223632520#1 223632525#1"/>
    </vehicle>
    <vehicle id="veh49" depart="91.14" departLane="best" departPos="random" departSpeed="max">
        <route edges="-223632526 -671642282 258728090#0 258728090#1"/>
    </vehicle>
    <vehicle id="veh50" depart="93.00" departLane="best" departPos="random" departSpeed="max">
        <route edges="223632522 -649040853#1 -E3 -E2 -649064895 649064895 E2 E3"/>
    </vehicle>
    <vehicle id="veh51" depart="94.86" departLane="best" departPos="random" departSpeed="max">
        <route edges="-E3 -E2 -649064895 649064896#1 258728090#3"/>
    </vehicle>
    <vehicle id="veh52" depart="96.72" departLane="best" departPos="random" departSpeed="max">
        <route edges="-223632526 -671642282"/>
    </vehicle>
    <vehicle id="veh53" depart="98.58" departLane="best" departPos="random" departSpeed="max">
        <route edges="-649064895 E4"/>
    </vehicle>
    <vehicle id="veh54" depart="100.44" departLane="best" departPos="random" departSpeed="max">
        <route edges="-223632520#1 223632525#1 -258728090#4 -E4 649064895 E2 E3 649040853#1 -223632522"/>
    </vehicle>
    <vehicle id="veh55" depart="102.30" departLane="best" departPos="random" departSpeed="max">
        <route edges="-671642282 258728090#0 223632517 -E3 -E2 -649064895"/>
    </vehicle>
    <vehicle id="veh57" depart="106.02" departLane="best" departPos="random" departSpeed="max">
        <route edges="-258728090#4 258728090#4 -E1 -223632520#1 223632525#1"/>
    </vehicle>
    <vehicle id="veh58" depart="107.88" departLane="best" departPos="random" departSpeed="max">
        <route edges="-223632526 -671642282 258728090#0 258728090#1 -649064896#1 649064896#1 -258728090#2 -258728090#0 671642282"/>
    </vehicle>
    <vehicle id="veh59" depart="109.74" departLane="best" departPos="random" departSpeed="max">
        <route edges="E2 -223632520#2 E1 -223632525#2 223632520#1 223632520#2 -E2"/>
    </vehicle>
    <vehicle id="veh60" depart="111.60" departLane="best" departPos="random" departSpeed="max">
        <route edges="E4 258728090#4 -E1 223632520#2 E3 649040853#1"/>
    </vehicle>
    <vehicle id="veh61" depart="113.46" departLane="best" departPos="random" departSpeed="max">
        <route edges="649064896#1 258728090#3 -E4 649064895"/>
    </vehicle>
    <vehicle id="veh62" depart="115.32" departLane="best" departPos="random" departSpeed="max">
        <route edges="223632525#1 -258728090#4 -E4 649064895 E2 -223632520#2"/>
    </vehicle>
    <vehicle id="veh63" depart="117.18" departLane="best" departPos="random" departSpeed="max">
        <route edges="223632525#1 -258728090#4 -258728090#3 -649064896#1 E4"/>
    </vehicle>
    <vehicle id="veh64" depart="119.04" departLane="best" departPos="random" departSpeed="max">
        <route edges="E4 -258728090#3 -258728090#2 -258728090#0 671642282"/>
    </vehicle>
    <vehicle id="veh66" depart="122.76" departLane="best" departPos="random" departSpeed="max">
        <route edges="223632525#1 -258728090#4"/>
    </vehicle>
    <vehicle id="veh67" depart="124.62" departLane="best" departPos="random" departSpeed="max">
        <route edges="258728090#1 -649064896#1 649064896#1 -258728090#2"/>
    </vehicle>
    <vehicle id="veh68" depart="126.48" departLane="best" departPos="random" departSpeed="max">
        <route edges="-649036317#3 E1 -223632525#2"/>
    </vehicle>
    <vehicle id="veh69" depart="128.34" departLane="best" departPos="random" departSpeed="max">
        <route edges="649064896#1 258728090#3 258728090#4 -E1 223632520#2"/>
    </vehicle>
    <vehicle id="veh70" depart="130.20" departLane="best" departPos="random" departSpeed="max">
        <route edges="-258728090#2 223632517 -E3 -223632520#2 -223632520#1 -223632520#0"/>
    </vehicle>
    <vehicle id="veh72" depart="133.92" departLane="best" departPos="random" departSpeed="max">
        <route edges="E4 258728090#4 -E1 223632520#2 E3"/>
    </vehicle>
    <vehicle id="veh73" depart="135.78" departLane="best" departPos="random" departSpeed="max">
        <route edges="649064896#1 258728090#3 258728090#4 -E1 -223632520#1"/>
    </vehicle>
    <vehicle id="veh75" depart="139.50" departLane="best" departPos="random" departSpeed="max">
        <route edges="E1 -258728090#4 258728090#4"/>
    </vehicle>
    <vehicle id="veh76" depart="141.36" departLane="best" departPos="random" departSpeed="max">
        <route edges="258728090#1 -649064896#1 649064895 E2 E3"/>
    </vehicle>
    <vehicle id="veh77" depart="143.22" departLane="best" departPos="random" departSpeed="max">
        <route edges="223632520#2"/>
    </vehicle>
    <vehicle id="veh78" depart="145.08" departLane="best" departPos="random" departSpeed="max">
        <route edges="-258728090#2 -258728090#0 671642282"/>
    </vehicle>
    <vehicle id="veh79" depart="146.94" departLane="best" departPos="random" departSpeed="max">
        <route edges="223632522 -649040853#1 -E3 -223632520#2"/>
    </vehicle>
    <vehicle id="veh80" depart="148.80" departLane="best" departPos="random" departSpeed="max">
        <route edges="-258728090#2 223632517 -E3 -223632520#2 E1"/>
    </vehicle>
    <vehicle id="veh83" depart="154.38" departLane="best" departPos="random" departSpeed="max">
        <route edges="223632520#2 -E2 -649064895 E4 258728090#4 -E1"/>
    </vehicle>
    <vehicle id="veh85" depart="158.10" departLane="best" departPos="random" departSpeed="max">
        <route edges="-649064896#1 E4 258728090#4 -223632525#2 -223632525#0"/>
    </vehicle>
    <vehicle id="veh86" depart="159.96" departLane="best" departPos="random" departSpeed="max">
        <route edges="258728090#0 258728090#1 -649064896#1 649064895 E2 E3"/>
    </vehicle>
    <vehicle id="veh87" depart="161.82" departLane="best" departPos="random" departSpeed="max">
        <route edges="-258728090#3 -649064896#1 649064895 E2 E3 649040853#1 -223632522"/>
    </vehicle>
    <vehicle id="veh88" depart="163.68" departLane="best" departPos="random" departSpeed="max">
        <route edges="-223632517 258728090#1 -649064896#1 649064895 E2"/>
    </vehicle>
    <vehicle id="veh91" depart="169.26" departLane="best" departPos="random" departSpeed="max">
        <route edges="258728090#1 258728090#3 258728090#4 -E1"/>
    </vehicle>
    <vehicle id="veh92" depart="171.12" departLane="best" departPos="random" departSpeed="max">
        <route edges="-258728090#3 -649064896#1 649064895 E2 E3 -223632517 258728090#1"/>
    </vehicle>
    <vehicle id="veh93" depart="172.98" departLane="best" departPos="random" departSpeed="max">
        <route edges="258728090#0 223632517 649040853#1 -223632522"/>
    </vehicle>
    <vehicle id="veh94" depart="174.84" departLane="best" departPos="random" departSpeed="max">
        <route edges="E1 -223632525#2 -223632520#0"/>
    </vehicle>
    <vehicle id="veh95" depart="176.70" departLane="best" departPos="random" departSpeed="max">
        <route edges="223632520#0 223632525#1"/>
    </vehicle>
    <vehicle id="veh96" depart="178.56" departLane="best" departPos="random" departSpeed="max">
        <route edges="-144943776 -649040853#1 -223632517 -258728090#0"/>
    </vehicle>
    <vehicle id="veh97" depart="180.42" departLane="best" departPos="random" departSpeed="max">
        <route edges="649064896#1 -258728090#2 -258728090#0 671642282"/>
    </vehicle>
    <vehicle id="veh98" depart="182.28" departLane="best" departPos="random" departSpeed="max">
        <route edges="-223632526 -671642282 258728090#0 223632517 -E3"/>
    </vehicle>
    <vehicle id="veh99" depart="184.14" departLane="best" departPos="random" departSpeed="max">
        <route edges="-649040853#1 -E3 -E2 -649064895 E4"/>
    </vehicle>
    <vehicle id="veh101" depart="187.86" departLane="best" departPos="random" departSpeed="max">
        <route edges="223632520#0 223632520#1 223632520#2 E3 -223632517"/>
    </vehicle>
    <vehicle id="veh103" depart="191.58" departLane="best" departPos="random" departSpeed="max">
        <route edges="-223632517 258728090#1 -649064896#1 649064895 E2 E3 649040853#1 -223632522"/>
    </vehicle>
    <vehicle id="veh104" depart="193.44" departLane="best" departPos="random" departSpeed="max">
        <route edges="-649064896#1 649064895 E2 -223632520#2 E1 -258728090#4"/>
    </vehicle>
    <vehicle id="veh105" depart="195.30" departLane="best" departPos="random" departSpeed="max">
        <route edges="-E2 -649064895 649064896#1 -258728090#2 223632517"/>
    </vehicle>
    <vehicle id="veh106" depart="197.16" departLane="best" departPos="random" departSpeed="max">
        <route edges="-258728090#3 -649064896#1 E4 258728090#4"/>
    </vehicle>
    <vehicle id="veh107" depart="199.02" departLane="best" departPos="random" departSpeed="max">
        <route edges="-E4 649064895 E2 -223632520#2 -223632520#1 -223632525#0"/>
    </vehicle>
    <vehicle id="veh108" depart="200.88" departLane="best" departPos="random" departSpeed="max">
        <route edges="223632520#2"/>
    </vehicle>
    <vehicle id="veh110" depart="204.60" departLane="best" departPos="random" departSpeed="max">
        <route edges="-E2 -649064895 649064895 E2 E3 649040853#1 -223632522"/>
    </vehicle>
    <vehicle id="veh111" depart="206.46" departLane="best" departPos="random" departSpeed="max">
        <route edges="-258728090#2 223632517 -E3"/>
    </vehicle>
    <vehicle id="veh112" depart="208.32" departLane="best" departPos="random" departSpeed="max">
        <route edges="223632517 -E3 -223632520#2 E1"/>
    </vehicle>
    <vehicle id="veh113" depart="210.18" departLane="best" departPos="random" departSpeed="max">
        <route edges="-258728090#3 -649064896#1 649064895 E2 -223632520#2 -223632520#1 223632525#1"/>
    </vehicle>
    <vehicle id="veh114" depart="212.04" departLane="best" departPos="random" departSpeed="max">
        <route edges="-223632520#2"/>
    </vehicle>
    <vehicle id="veh115" depart="213.90" departLane="best" departPos="random" departSpeed="max">
        <route edges="-144943776 -649040853#1 -223632517 -258728090#0"/>
    </vehicle>
    <vehicle id="veh116" depart="215.76" departLane="best" departPos="random" departSpeed="max">
        <route edges="649064895 E2 E3 -223632517 -258728090#0 671642282 223632526"/>
    </vehicle>
    <vehicle id="veh117" depart="217.62" departLane="best" departPos="random" departSpeed="max">
        <route edges="223632525#0 223632520#1"/>
    </vehicle>
    <vehicle id="veh118" depart="219.48" departLane="best" departPos="random" departSpeed="max">
        <route edges="-223632526 -671642282 258728090#0 223632517 -E3 -223632520#2 E1 -258728090#4"/>
    </vehicle>
    <vehicle id="veh119" depart="221.34" departLane="best" departPos="random" departSpeed="max">
        <route edges="-223632526 -671642282 258728090#0 223632517 -E3 -223632520#2 -223632520#1 223632525#1"/>
    </vehicle>
    <vehicle id="veh120" depart="223.20" departLane="best" departPos="random" departSpeed="max">
        <route edges="-223632520#2 -223632520#1 223632525#1 -E1"/>
    </vehicle>
    <vehicle id="veh122" depart="226.92" departLane="best" departPos="random" departSpeed="max">
        <route edges="223632520#0 223632525#1"/>
    </vehicle>
    <vehicle id="veh125" depart="232.50" departLane="best" departPos="random" departSpeed="max">
        <route edges="258728090#0 223632517 -E3 -223632520#2 E1 -258728090#4"/>
    </vehicle>
    <vehicle id="veh126" depart="234.36" departLane="best" departPos="random" departSpeed="max">
        <route edges="E4 258728090#4 -E1 223632520#2 E3 649040853#1 649040853#2"/>
    </vehicle>
    <vehicle id="veh127" depart="236.22" departLane="best" departPos="random" departSpeed="max">
        <route edges="258728090#1 -649064896#1 649064896#1 -258728090#2 -258728090#0"/>
    </vehicle>
    <vehicle id="veh128" depart="238.08" departLane="best" departPos="random" departSpeed="max">
        <route edges="-649036317#3 223632520#2 E3 649040853#1 -223632522"/>
    </vehicle>
    <vehicle id="veh129" depart="239.94" departLane="best" departPos="random" departSpeed="max">
        <route edges="-144943776 -649040853#1 -E3 -E2 -649064895 649064896#1 258728090#3"/>
    </vehicle>
    <vehicle id="veh130" depart="241.80" departLane="best" departPos="random" departSpeed="max">
        <route edges="E1 -258728090#4 -E4 649064896#1"/>
    </vehicle>
    <vehicle id="veh131" depart="243.66" departLane="best" departPos="random" departSpeed="max">
        <route edges="-E2 -649064895 649064895 E2 E3 -223632517"/>
    </vehicle>
    <vehicle id="veh132" depart="245.52" departLane="best" departPos="random" departSpeed="max">
        <route edges="223632517 -E3 -E2 -649064895 649064896#1 258728090#3"/>
    </vehicle>
    <vehicle id="veh133" depart="247.38" departLane="best" departPos="random" departSpeed="max">
        <route edges="-E2 -649064895 E4 258728090#4 -223632525#2"/>
    </vehicle>
    <vehicle id="veh135" depart="251.10" departLane="best" departPos="random" departSpeed="max">
        <route edges="-E4 649064896#1"/>
    </vehicle>
    <vehicle id="veh136" depart="252.96" departLane="best" departPos="random" departSpeed="max">
        <route edges="223632525#0 223632520#1 223632520#2 E3"/>
    </vehicle>
    <vehicle id="veh137" depart="254.82" departLane="best" departPos="random" departSpeed="max">
        <route edges="-671642282 258728090#0 223632517 -E3 -223632520#2 -223632520#1 -223632520#0"/>
    </vehicle>
    <vehicle id="veh138" depart="256.68" departLane="best" departPos="random" departSpeed="max">
        <route edges="-649036317#3 E1 -258728090#4 -E4 649064895"/>
    </vehicle>
    <vehicle id="veh139" depart="258.54" departLane="best" departPos="random" departSpeed="max">
        <route edges="-258728090#3 -649064896#1 649064896#1 258728090#3"/>
    </vehicle>
    <vehicle id="veh140" depart="260.40" departLane="best" departPos="random" departSpeed="max">
        <route edges="-649036317#3 E1 -258728090#4 -258728090#3 -258728090#2 223632517 -E3"/>
    </vehicle>
    <vehicle id="veh141" depart="262.26" departLane="best" departPos="random" departSpeed="max">
        <route edges="223632520#1 223632520#2 E3 -223632517 -258728090#0 671642282 223632526"/>
    </vehicle>
    <vehicle id="veh142" depart="264.12" departLane="best" departPos="random" departSpeed="max">
        <route edges="223632525#1 -E1 -223632520#1 -223632525#0"/>
    </vehicle>
    <vehicle id="veh143" depart="265.98" departLane="best" departPos="random" departSpeed="max">
        <route edges="223632522 -649040853#1 -E3 -E2 -649064895 E4 258728090#4 -E1 223632520#2"/>
    </vehicle>
    <vehicle id="veh144" depart="267.84" departLane="best" departPos="random" departSpeed="max">
        <route edges="E3 -223632517 258728090#1 258728090#3"/>
    </vehicle>
    <vehicle id="veh145" depart="269.70" departLane="best" departPos="random" departSpeed="max">
        <route edges="258728090#0"/>
    </vehicle>
    <vehicle id="veh146" depart="271.56" departLane="best" departPos="random" departSpeed="max">
        <route edges="-144943776 -649040853#1 -E3 -223632520#2 -223632520#1 -223632520#0"/>
    </vehicle>
    <vehicle id="veh147" depart="273.42" departLane="best" departPos="random" departSpeed="max">
        <route edges="-E2 -649064895 649064896#1 -258728090#2 -258728090#0 671642282"/>
    </vehicle>
    <vehicle id="veh149" depart="277.14" departLane="best" departPos="random" departSpeed="max">
        <route edges="-144943776 -649040853#1 -E3 -E2 -649064895 649064895 E2"/>
    </vehicle>
    <vehicle id="veh150" depart="279.00" departLane="best" departPos="random" departSpeed="max">
        <route edges="-671642282 258728090#0 258728090#1 258728090#3 258728090#4 -E1 223632520#2"/>
    </vehicle>
    <vehicle id="veh151" depart="280.86" departLane="best" departPos="random" departSpeed="max">
        <route edges="649064896#1 -258728090#2 223632517 -E3"/>
    </vehicle>
    <vehicle id="veh152" depart="282.72" departLane="best" departPos="random" departSpeed="max">
        <route edges="223632520#0 223632525#1 -258728090#4 258728090#4"/>
    </vehicle>
    <vehicle id="veh153" depart="284.58" departLane="best" departPos="random" departSpeed="max">
        <route edges="-258728090#4 -E4 649064895 E2 E3"/>
    </vehicle>
    <vehicle id="veh154" depart="286.44" departLane="best" departPos="random" departSpeed="max">
        <route edges="E4 258728090#4 -E1"/>
    </vehicle>
    <vehicle id="veh155" depart="288.30" departLane="best" departPos="random" departSpeed="max">
        <route edges="223632520#0 223632520#1 223632520#2 -E2 -649064895 E4"/>
    </vehicle>
    <vehicle id="veh156" depart="290.16" departLane="best" departPos="random" departSpeed="max">
        <route edges="-E4 649064895 E2 E3"/>
    </vehicle>
    <vehicle id="veh158" depart="293.88" departLane="best" departPos="random" departSpeed="max">
        <route edges="-223632517 258728090#1 -649064896#1 E4 -258728090#3"/>
    </vehicle>
    <vehicle id="veh160" depart="297.60" departLane="best" departPos="random" departSpeed="max">
        <route edges="-258728090#4 -E4 649064895 E2 E3 649040853#1 649040853#2"/>
    </vehicle>
    <vehicle id="veh161" depart="299.46" departLane="best" departPos="random" departSpeed="max">
        <route edges="223632520#2 -E2 -649064895 649064895"/>
    </vehicle>
    <vehicle id="veh162" depart="301.32" departLane="best" departPos="random" departSpeed="max">
        <route edges="-E1 -223632520#1"/>
    </vehicle>
    <vehicle id="veh163" depart="303.18" departLane="best" departPos="random" departSpeed="max">
        <route edges="223632520#2 E3 649040853#1 649040853#2"/>
    </vehicle>
    <vehicle id="veh164" depart="305.04" departLane="best" departPos="random" departSpeed="max">
        <route edges="-223632520#1 223632525#1 -258728090#4 -E4 649064896#1 258728090#3"/>
    </vehicle>
    <vehicle id="veh165" depart="306.90" departLane="best" departPos="random" departSpeed="max">
        <route edges="223632520#0 223632520#1 223632520#2 -E2"/>
    </vehicle>
    <vehicle id="veh166" depart="308.76" departLane="best" departPos="random" departSpeed="max">
        <route edges="-E1 223632520#2 E3 -223632517 -258728090#0 671642282 223632526"/>
    </vehicle>
    <vehicle id="veh167" depart="310.62" departLane="best" departPos="random" departSpeed="max">
        <route edges="-E4 649064895 -649064895"/>
    </vehicle>
    <vehicle id="veh168" depart="312.48" departLane="best" departPos="random" departSpeed="max">
        <route edges="258728090#0 223632517 -E3 -223632520#2"/>
    </vehicle>
    <vehicle id="veh169" depart="314.34" departLane="best" departPos="random" departSpeed="max">
        <route edges="223632517 -E3 -E2 -649064895 649064896#1 -258728090#2 -258728090#0 671642282"/>
    </vehicle>
    <vehicle id="veh170" depart="316.20" departLane="best" departPos="random" departSpeed="max">
        <route edges="-223632525#2 223632520#1 E1 -258728090#4 258728090#4 -E1"/>
    </vehicle>
    <vehicle id="veh171" depart="318.06" departLane="best" departPos="random" departSpeed="max">
        <route edges="-649036317#3 E1 -258728090#4 -258728090#3"/>
    </vehicle>
    <vehicle id="veh172" depart="319.92" departLane="best" departPos="random" departSpeed="max">
        <route edges="-649064895 E4 258728090#4 -223632525#2 -223632525#0"/>
    </vehicle>
    <vehicle id="veh173" depart="321.78" departLane="best" departPos="random" departSpeed="max">
        <route edges="258728090#0 258728090#1 -649064896#1 E4"/>
    </vehicle>
    <vehicle id="veh174" depart="323.64" departLane="best" departPos="random" departSpeed="max">
        <route edges="649064896#1"/>
    </vehicle>
    <vehicle id="veh175" depart="325.50" departLane="best" departPos="random" departSpeed="max">
        <route edges="-649064896#1 649064896#1 -258728090#2 -258728090#0 671642282 223632526"/>
    </vehicle>
    <vehicle id="veh176" depart="327.36" departLane="best" departPos="random" departSpeed="max">
        <route edges="-E1 -223632520#1 223632525#1 -258728090#4"/>
    </vehicle>
    <vehicle id="veh177" depart="329.22" departLane="best" departPos="random" departSpeed="max">
        <route edges="223632517 -E3 -E2 -649064895 E4 -258728090#3 -649064896#1"/>
    </vehicle>
    <vehicle id="veh178" depart="331.08" departLane="best" departPos="random" departSpeed="max">
        <route edges="-649064895 E4 -258728090#3 -649064896#1"/>
    </vehicle>
    <vehicle id="veh179" depart="332.94" departLane="best" departPos="random" departSpeed="max">
        <route edges="649064896#1 258728090#3 -E4 649064895 E2 -223632520#2"/>
    </vehicle>
    <vehicle id="veh180" depart="334.80" departLane="best" departPos="random" departSpeed="max">