<?xml version="1.0" encoding="UTF-8"?>

<!-- generated on 2025-05-11 07:33:33.111391 by randomTrips.py v1_22_0+0002-63e50f52594
<configuration>
    <net-file value="E:/licenta/oras-mic/2025-05-08-13-35-40\osm.net.xml"/>
    <output-trip-file value="E:/licenta/oras-mic/2025-05-08-13-35-40\trips.trips.xml"/>
    <route-file value="E:/licenta/oras-mic/2025-05-08-13-35-40\generated_routes\routes_worker3_e2e4aed3.rou.xml"/>
    <prefix value="veh"/>
    <trip-attributes value="departLane=&quot;best&quot; departSpeed=&quot;max&quot; departPos=&quot;random&quot;"/>
    <fringe-factor value="3.1"/>
    <seed value="63423"/>
    <end value="600.0"/>
    <period value="1.68"/>
</configuration>
-->

<!-- generated on 2025-05-11 07:33:33 by Eclipse SUMO duarouter Version 1.22.0
<duarouterConfiguration xmlns:xsi="http://www.w3.org/2001/XMLSchema-instance" xsi:noNamespaceSchemaLocation="http://sumo.dlr.de/xsd/duarouterConfiguration.xsd">

    <input>
        <net-file value="E:/licenta/oras-mic/2025-05-08-13-35-40\osm.net.xml"/>
        <route-files value="E:/licenta/oras-mic/2025-05-08-13-35-40\trips.trips.xml"/>
    </input>

    <output>
        <output-file value="E:/licenta/oras-mic/2025-05-08-13-35-40\generated_routes\routes_worker3_e2e4aed3.rou.xml"/>
        <alternatives-output value="NUL"/>
    </output>

    <time>
        <begin value="0"/>
        <end value="600.0"/>
    </time>

    <report>
        <no-warnings value="true"/>
        <ignore-errors value="true"/>
        <no-step-log value="true"/>
    </report>

</duarouterConfiguration>
-->

<routes xmlns:xsi="http://www.w3.org/2001/XMLSchema-instance" xsi:noNamespaceSchemaLocation="http://sumo.dlr.de/xsd/routes_file.xsd">
    <vehicle id="veh0" depart="0.00" departLane="best" departPos="random" departSpeed="max">
        <route edges="-E2 -649064895 649064895 E2 E3 649040853#1 649040853#2"/>
    </vehicle>
    <vehicle id="veh1" depart="1.60" departLane="best" departPos="random" departSpeed="max">
        <route edges="E2 E3 649040853#1 649040853#2"/>
    </vehicle>
    <vehicle id="veh2" depart="3.20" departLane="best" departPos="random" departSpeed="max">
        <route edges="649064896#1 258728090#3 258728090#4 -223632525#2 223632520#1 E1"/>
    </vehicle>
    <vehicle id="veh3" depart="4.80" departLane="best" departPos="random" departSpeed="max">
        <route edges="-649064896#1 649064895 E2"/>
    </vehicle>
    <vehicle id="veh4" depart="6.40" departLane="best" departPos="random" departSpeed="max">
        <route edges="-223632526 -671642282 258728090#0 258728090#1 -649064896#1 649064896#1 -258728090#2 -258728090#0 671642282 223632526"/>
    </vehicle>
    <vehicle id="veh5" depart="8.00" departLane="best" departPos="random" departSpeed="max">
        <route edges="223632522 -649040853#1 -E3 -223632520#2 649036317#3"/>
    </vehicle>
    <vehicle id="veh6" depart="9.60" departLane="best" departPos="random" departSpeed="max">
        <route edges="-649040853#1 -E3 -E2 -649064895 E4 258728090#4 -223632525#2 223632520#1"/>
    </vehicle>
    <vehicle id="veh7" depart="11.20" departLane="best" departPos="random" departSpeed="max">
        <route edges="258728090#4 -E1 223632520#2 -E2 -649064895 649064896#1 -258728090#2"/>
    </vehicle>
    <vehicle id="veh9" depart="14.40" departLane="best" departPos="random" departSpeed="max">
        <route edges="223632520#1 223632520#2 E3 -223632517 258728090#1"/>
    </vehicle>
    <vehicle id="veh10" depart="16.00" departLane="best" departPos="random" departSpeed="max">
        <route edges="-223632525#2 223632520#1 223632520#2 E3 649040853#1 -223632522"/>
    </vehicle>
    <vehicle id="veh12" depart="19.20" departLane="best" departPos="random" departSpeed="max">
        <route edges="-258728090#2 -258728090#0 671642282"/>
    </vehicle>
    <vehicle id="veh14" depart="22.40" departLane="best" departPos="random" departSpeed="max">
        <route edges="-223632526 -671642282 258728090#0 223632517 -E3 -223632520#2 E1 -258728090#4"/>
    </vehicle>
    <vehicle id="veh15" depart="24.00" departLane="best" departPos="random" departSpeed="max">
        <route edges="-144943776 -649040853#1 -E3 -E2 -649064895 649064896#1 -258728090#2 223632517"/>
    </vehicle>
    <vehicle id="veh16" depart="25.60" departLane="best" departPos="random" departSpeed="max">
        <route edges="-E2 -649064895 649064896#1 258728090#3 -E4"/>
    </vehicle>
    <vehicle id="veh17" depart="27.20" departLane="best" departPos="random" departSpeed="max">
        <route edges="-E2 -649064895 E4"/>
    </vehicle>
    <vehicle id="veh20" depart="32.00" departLane="best" departPos="random" departSpeed="max">
        <route edges="-144943776 -223632522"/>
    </vehicle>
    <vehicle id="veh21" depart="33.60" departLane="best" departPos="random" departSpeed="max">
        <route edges="-223632520#1 -223632525#0"/>
    </vehicle>
    <vehicle id="veh22" depart="35.20" departLane="best" departPos="random" departSpeed="max">
        <route edges="223632520#0 -223632525#0"/>
    </vehicle>
    <vehicle id="veh23" depart="36.80" departLane="best" departPos="random" departSpeed="max">
        <route edges="-223632526 -671642282 258728090#0 223632517 -E3 -223632520#2 -223632520#1 -223632520#0"/>
    </vehicle>
    <vehicle id="veh25" depart="40.00" departLane="best" departPos="random" departSpeed="max">
        <route edges="258728090#3 -258728090#3"/>
    </vehicle>
    <vehicle id="veh27" depart="43.20" departLane="best" departPos="random" departSpeed="max">
        <route edges="-223632517 -258728090#0"/>
    </vehicle>
    <vehicle id="veh28" depart="44.80" departLane="best" departPos="random" departSpeed="max">
        <route edges="E2 -223632520#2 -223632520#1 -223632525#0"/>
    </vehicle>
    <vehicle id="veh29" depart="46.40" departLane="best" departPos="random" departSpeed="max">
        <route edges="223632522 -649040853#1"/>
    </vehicle>
    <vehicle id="veh30" depart="48.00" departLane="best" departPos="random" departSpeed="max">
        <route edges="E3 -223632517 258728090#1 258728090#3 258728090#4 -223632525#2 -223632525#0"/>
    </vehicle>
    <vehicle id="veh31" depart="49.60" departLane="best" departPos="random" departSpeed="max">
        <route edges="223632520#0 223632520#1 223632520#2 E3 -223632517 258728090#1"/>
    </vehicle>
    <vehicle id="veh32" depart="51.20" departLane="best" departPos="random" departSpeed="max">
        <route edges="-649036317#3 E1 -258728090#4 -258728090#3"/>
    </vehicle>
    <vehicle id="veh33" depart="52.80" departLane="best" departPos="random" departSpeed="max">
        <route edges="-649040853#1 -E3 -E2 -649064895 E4 258728090#4 -E1"/>
    </vehicle>
    <vehicle id="veh34" depart="54.40" departLane="best" departPos="random" departSpeed="max">
        <route edges="223632517 -E3 -E2 -649064895 E4"/>
    </vehicle>
    <vehicle id="veh35" depart="56.00" departLane="best" departPos="random" departSpeed="max">
        <route edges="E4 258728090#4"/>
    </vehicle>
    <vehicle id="veh36" depart="57.60" departLane="best" departPos="random" departSpeed="max">
        <route edges="E3 -223632517 -258728090#0 671642282 223632526"/>
    </vehicle>
    <vehicle id="veh37" depart="59.20" departLane="best" departPos="random" departSpeed="max">
        <route edges="258728090#0 258728090#1 -649064896#1 649064896#1 -258728090#2 -258728090#0 671642282 223632526"/>
    </vehicle>
    <vehicle id="veh38" depart="60.80" departLane="best" departPos="random" departSpeed="max">
        <route edges="-223632526 -671642282 258728090#0 258728090#1 -649064896#1 E4 -258728090#3"/>
    </vehicle>
    <vehicle id="veh39" depart="62.40" departLane="best" departPos="random" departSpeed="max">
        <route edges="-649040853#1 -E3 -E2 -649064895 649064895 E2 E3 649040853#1 649040853#2"/>
    </vehicle>
    <vehicle id="veh40" depart="64.00" departLane="best" departPos="random" departSpeed="max">
        <route edges="-E3 -E2 -649064895 E4 -258728090#3 -649064896#1"/>
    </vehicle>
    <vehicle id="veh42" depart="67.20" departLane="best" departPos="random" departSpeed="max">
        <route edges="-649064895 E4 -258728090#3 -649064896#1"/>
    </vehicle>
    <vehicle id="veh45" depart="72.00" departLane="best" departPos="random" departSpeed="max">
        <route edges="649064895 -649064895 649064896#1 258728090#3"/>
    </vehicle>
    <vehicle id="veh46" depart="73.60" departLane="best" departPos="random" departSpeed="max">
        <route edges="-649064896#1 649064896#1 258728090#3 -E4"/>
    </vehicle>
    <vehicle id="veh47" depart="75.20" departLane="best" departPos="random" departSpeed="max">
        <route edges="223632520#0 223632525#1 -258728090#4 -E4 649064896#1"/>
    </vehicle>
    <vehicle id="veh48" depart="76.80" departLane="best" departPos="random" departSpeed="max">
        <route edges="-223632525#2 223632520#1"/>
    </vehicle>
    <vehicle id="veh49" depart="78.40" departLane="best" departPos="random" departSpeed="max">
        <route edges="-649064895 E4"/>
    </vehicle>
    <vehicle id="veh50" depart="80.00" departLane="best" departPos="random" departSpeed="max">
        <route edges="-649040853#1 -E3 -E2 -649064895 649064895 E2 E3 649040853#1 649040853#2"/>
    </vehicle>
    <vehicle id="veh51" depart="81.60" departLane="best" departPos="random" departSpeed="max">
        <route edges="223632520#0 223632520#1 223632520#2 E3 -223632517 -258728090#0 671642282 223632526"/>
    </vehicle>
    <vehicle id="veh52" depart="83.20" departLane="best" departPos="random" departSpeed="max">
        <route edges="-144943776 -649040853#1 -E3 -E2 -649064895 649064895 E2 E3"/>
    </vehicle>
    <vehicle id="veh53" depart="84.80" departLane="best" departPos="random" departSpeed="max">
        <route edges="-649036317#3 E1 -258728090#4 -E4"/>
    </vehicle>
    <vehicle id="veh54" depart="86.40" departLane="best" departPos="random" departSpeed="max">
        <route edges="258728090#0 223632517 649040853#1 -223632522"/>
    </vehicle>
    <vehicle id="veh55" depart="88.00" departLane="best" departPos="random" departSpeed="max">
        <route edges="E1 -258728090#4 -E4 649064895 E2 E3 649040853#1 649040853#2"/>
    </vehicle>
    <vehicle id="veh56" depart="89.60" departLane="best" departPos="random" departSpeed="max">
        <route edges="-223632526 -671642282 258728090#0"/>
    </vehicle>
    <vehicle id="veh57" depart="91.20" departLane="best" departPos="random" departSpeed="max">
        <route edges="-649064895 E4 258728090#4 -E1 -223632520#1"/>
    </vehicle>
    <vehicle id="veh58" depart="92.80" departLane="best" departPos="random" departSpeed="max">
        <route edges="223632522 -649040853#1 -E3 -E2 -649064895 649064895 E2 E3 649040853#1 -223632522"/>
    </vehicle>
    <vehicle id="veh60" depart="96.00" departLane="best" departPos="random" departSpeed="max">
        <route edges="-649064895 E4 258728090#4 -223632525#2 -223632525#0"/>
    </vehicle>
    <vehicle id="veh61" depart="97.60" departLane="best" departPos="random" departSpeed="max">
        <route edges="-649064895 649064895"/>
    </vehicle>
    <vehicle id="veh62" depart="99.20" departLane="best" departPos="random" departSpeed="max">
        <route edges="E1 -258728090#4 -E4 649064895 E2 -223632520#2"/>
    </vehicle>
    <vehicle id="veh63" depart="100.80" departLane="best" departPos="random" departSpeed="max">
        <route edges="223632522 -649040853#1 -223632517 -258728090#0"/>
    </vehicle>
    <vehicle id="veh64" depart="102.40" departLane="best" departPos="random" departSpeed="max">
        <route edges="223632520#0 223632520#1 649036317#3"/>
    </vehicle>
    <vehicle id="veh65" depart="104.00" departLane="best" departPos="random" departSpeed="max">
        <route edges="-E2 -649064895 649064895 E2 E3 649040853#1 649040853#2"/>
    </vehicle>
    <vehicle id="veh66" depart="105.60" departLane="best" departPos="random" departSpeed="max">
        <route edges="223632517 -E3 -223632520#2 E1 -258728090#4"/>
    </vehicle>
    <vehicle id="veh67" depart="107.20" departLane="best" departPos="random" departSpeed="max">
        <route edges="-649036317#3 E1 -258728090#4 -258728090#3 -649064896#1"/>
    </vehicle>
    <vehicle id="veh68" depart="108.80" departLane="best" departPos="random" departSpeed="max">
        <route edges="223632522 -649040853#1 -E3 -223632520#2 -223632520#1"/>
    </vehicle>
    <vehicle id="veh69" depart="110.40" departLane="best" departPos="random" departSpeed="max">
        <route edges="258728090#1 258728090#3 258728090#4 -223632525#2 -223632525#0"/>
    </vehicle>
    <vehicle id="veh70" depart="112.00" departLane="best" departPos="random" departSpeed="max">
        <route edges="-649064896#1 E4 258728090#4 -223632525#2 -223632520#0"/>
    </vehicle>
    <vehicle id="veh71" depart="113.60" departLane="best" departPos="random" departSpeed="max">
        <route edges="223632522 -649040853#1 -E3 -E2 -649064895 649064895 E2"/>
    </vehicle>
    <vehicle id="veh72" depart="115.20" departLane="best" departPos="random" departSpeed="max">
        <route edges="-144943776 -649040853#1 -E3 -223632520#2 -223632520#1 -223632525#0"/>
    </vehicle>
    <vehicle id="veh73" depart="116.80" departLane="best" departPos="random" departSpeed="max">
        <route edges="649064895 -649064895 649064896#1 258728090#3 -E4"/>
    </vehicle>
    <vehicle id="veh74" depart="118.40" departLane="best" departPos="random" departSpeed="max">
        <route edges="-144943776 -649040853#1 -E3 -E2 -649064895 E4 258728090#4 -E1 223632520#2"/>
    </vehicle>
    <vehicle id="veh75" depart="120.00" departLane="best" departPos="random" departSpeed="max">
        <route edges="258728090#1 -649064896#1 649064896#1 -258728090#2 -258728090#0 671642282"/>
    </vehicle>
    <vehicle id="veh76" depart="121.60" departLane="best" departPos="random" departSpeed="max">
        <route edges="-223632525#2 223632520#1 E1 -258728090#4 -258728090#3 -258728090#2 223632517"/>
    </vehicle>
    <vehicle id="veh77" depart="123.20" departLane="best" departPos="random" departSpeed="max">
        <route edges="-223632526 -671642282 258728090#0 223632517 -E3 -E2"/>
    </vehicle>
    <vehicle id="veh78" depart="124.80" departLane="best" departPos="random" departSpeed="max">
        <route edges="223632520#0 223632520#1 223632520#2 E3 -223632517 258728090#1"/>
    </vehicle>
    <vehicle id="veh79" depart="126.40" departLane="best" departPos="random" departSpeed="max">
        <route edges="223632520#2 -E2 -649064895 E4 258728090#4 -E1 649036317#3"/>
    </vehicle>
    <vehicle id="veh80" depart="128.00" departLane="best" departPos="random" departSpeed="max">
        <route edges="223632525#1 -258728090#4 -E4 649064895 E2 E3"/>
    </vehicle>
    <vehicle id="veh82" depart="131.20" departLane="best" departPos="random" departSpeed="max">
        <route edges="258728090#0 258728090#1 -649064896#1 649064896#1 -258728090#2 -258728090#0 671642282 223632526"/>
    </vehicle>
    <vehicle id="veh84" depart="134.40" departLane="best" departPos="random" departSpeed="max">
        <route edges="E2 E3 -223632517 -258728090#0 671642282"/>
    </vehicle>
    <vehicle id="veh85" depart="136.00" departLane="best" departPos="random" departSpeed="max">
        <route edges="223632520#0 223632520#1 223632520#2 -E2 -649064895 E4"/>
    </vehicle>
    <vehicle id="veh86" depart="137.60" departLane="best" departPos="random" departSpeed="max">
        <route edges="-649064896#1 E4 258728090#4 -223632525#2 -223632525#0"/>
    </vehicle>
    <vehicle id="veh87" depart="139.20" departLane="best" departPos="random" departSpeed="max">
        <route edges="223632520#1 223632520#2 -E2 -649064895 649064896#1"/>
    </vehicle>
    <vehicle id="veh88" depart="140.80" departLane="best" departPos="random" departSpeed="max">
        <route edges="258728090#0 223632517 -E3 -223632520#2 649036317#3"/>
    </vehicle>
    <vehicle id="veh89" depart="142.40" departLane="best" departPos="random" departSpeed="max">
        <route edges="E1 -258728090#4 -258728090#3 -258728090#2 -258728090#0 671642282 223632526"/>
    </vehicle>
    <vehicle id="veh90" depart="144.00" departLane="best" departPos="random" departSpeed="max">
        <route edges="E3 -223632517 -258728090#0 671642282 223632526"/>
    </vehicle>
    <vehicle id="veh91" depart="145.60" departLane="best" departPos="random" departSpeed="max">
        <route edges="-649064895 E4 258728090#4 -223632525#2 -223632525#0"/>
    </vehicle>
    <vehicle id="veh92" depart="147.20" departLane="best" departPos="random" departSpeed="max">
        <route edges="223632525#0 223632520#1 223632520#2 E3 -223632517 -258728090#0"/>
    </vehicle>
    <vehicle id="veh93" depart="148.80" departLane="best" departPos="random" departSpeed="max">
        <route edges="223632525#0 223632520#1 649036317#3"/>
    </vehicle>
    <vehicle id="veh94" depart="150.40" departLane="best" departPos="random" departSpeed="max">
        <route edges="-223632526 -671642282 258728090#0 258728090#1 -649064896#1 649064895 E2 E3 -223632517"/>
    </vehicle>
    <vehicle id="veh95" depart="152.00" departLane="best" departPos="random" departSpeed="max">
        <route edges="223632525#1 -258728090#4 -258728090#3 -258728090#2 223632517"/>
    </vehicle>
    <vehicle id="veh96" depart="153.60" departLane="best" departPos="random" departSpeed="max">
        <route edges="223632522 -649040853#1 -223632517 -258728090#0 671642282 223632526"/>
    </vehicle>
    <vehicle id="veh97" depart="155.20" departLane="best" departPos="random" departSpeed="max">
        <route edges="-144943776 -649040853#1 -E3 -E2 -649064895 649064896#1 258728090#3"/>
    </vehicle>
    <vehicle id="veh98" depart="156.80" departLane="best" departPos="random" departSpeed="max">
        <route edges="223632517 -E3 -E2 -649064895 649064895"/>
    </vehicle>
    <vehicle id="veh99" depart="158.40" departLane="best" departPos="random" departSpeed="max">
        <route edges="258728090#0 258728090#1 258728090#3 258728090#4 -E1 223632520#2"/>
    </vehicle>
    <vehicle id="veh100" depart="160.00" departLane="best" departPos="random" departSpeed="max">
        <route edges="649064896#1 258728090#3 258728090#4 -E1 649036317#3"/>
    </vehicle>
    <vehicle id="veh102" depart="163.20" departLane="best" departPos="random" departSpeed="max">
        <route edges="-223632517 258728090#1 258728090#3 258728090#4 -223632525#2 -223632525#0"/>
    </vehicle>
    <vehicle id="veh103" depart="164.80" departLane="best" departPos="random" departSpeed="max">
        <route edges="-649036317#3 E1 -258728090#4 -E4 649064895 E2 -223632520#2"/>
    </vehicle>
    <vehicle id="veh104" depart="166.40" departLane="best" departPos="random" departSpeed="max">
        <route edges="-258728090#4 258728090#4 -223632525#2 -223632520#0"/>
    </vehicle>
    <vehicle id="veh105" depart="168.00" departLane="best" departPos="random" departSpeed="max">
        <route edges="258728090#1 -649064896#1 649064895 E2 E3 649040853#1 649040853#2"/>
    </vehicle>
    <vehicle id="veh106" depart="169.60" departLane="best" departPos="random" departSpeed="max">
        <route edges="E1 -223632525#2 -223632520#0"/>
    </vehicle>
    <vehicle id="veh107" depart="171.20" departLane="best" departPos="random" departSpeed="max">
        <route edges="-223632517 -258728090#0"/>
    </vehicle>
    <vehicle id="veh108" depart="172.80" departLane="best" departPos="random" departSpeed="max">
        <route edges="-671642282 258728090#0 258728090#1 -649064896#1 649064896#1 -258728090#2 -258728090#0 671642282 223632526"/>
    </vehicle>
    <vehicle id="veh109" depart="174.40" departLane="best" departPos="random" departSpeed="max">
        <route edges="223632520#2 E3 649040853#1 -223632522"/>
    </vehicle>
    <vehicle id="veh110" depart="176.00" departLane="best" departPos="random" departSpeed="max">
        <route edges="223632522 -649040853#1 -E3 -E2 -649064895 649064895 E2"/>
    </vehicle>
    <vehicle id="veh111" depart="177.60" departLane="best" departPos="random" departSpeed="max">
        <route edges="258728090#1 -649064896#1 649064895 E2 E3 649040853#1 -223632522"/>
    </vehicle>
    <vehicle id="veh112" depart="179.20" departLane="best" departPos="random" departSpeed="max">
        <route edges="-258728090#4 258728090#4 -E1 649036317#3"/>
    </vehicle>
    <vehicle id="veh113" depart="180.80" departLane="best" departPos="random" departSpeed="max">
        <route edges="223632520#0 223632525#1 -258728090#4 -258728090#3 -258728090#2 223632517 -E3"/>
    </vehicle>
    <vehicle id="veh114" depart="182.40" departLane="best" departPos="random" departSpeed="max">
        <route edges="-258728090#4 258728090#4 -223632525#2 -223632520#0"/>
    </vehicle>
    <vehicle id="veh115" depart="184.00" departLane="best" departPos="random" departSpeed="max">
        <route edges="-144943776 -649040853#1 -E3 -223632520#2 649036317#3"/>
    </vehicle>
    <vehicle id="veh116" depart="185.60" departLane="best" departPos="random" departSpeed="max">
        <route edges="-223632517 258728090#1 -649064896#1 649064895 E2 E3 649040853#1 649040853#2"/>
    </vehicle>
    <vehicle id="veh117" depart="187.20" departLane="best" departPos="random" departSpeed="max">
        <route edges="-223632520#1 223632525#1 -258728090#4 -258728090#3 -258728090#2 223632517"/>
    </vehicle>
    <vehicle id="veh119" depart="190.40" departLane="best" departPos="random" departSpeed="max">
        <route edges="-144943776 -649040853#1 -E3 -223632520#2 E1"/>
    </vehicle>
    <vehicle id="veh120" depart="192.00" departLane="best" departPos="random" departSpeed="max">
        <route edges="-E2 -649064895 E4 258728090#4"/>
    </vehicle>
    <vehicle id="veh121" depart="193.60" departLane="best" departPos="random" departSpeed="max">
        <route edges="-649036317#3 223632520#2"/>
    </vehicle>
    <vehicle id="veh122" depart="195.20" departLane="best" departPos="random" departSpeed="max">
        <route edges="-223632520#2 649036317#3"/>
    </vehicle>
    <vehicle id="veh123" depart="196.80" departLane="best" departPos="random" departSpeed="max">
        <route edges="-258728090#3 -258728090#2 -258728090#0 671642282"/>
    </vehicle>
    <vehicle id="veh124" depart="198.40" departLane="best" departPos="random" departSpeed="max">
        <route edges="-649040853#1 -E3 -223632520#2 649036317#3"/>
    </vehicle>
    <vehicle id="veh125" depart="200.00" departLane="best" departPos="random" departSpeed="max">
        <route edges="-649040853#1 -E3"/>
    </vehicle>
    <vehicle id="veh126" depart="201.60" departLane="best" departPos="random" departSpeed="max">
        <route edges="223632525#0 223632520#1 223632520#2 E3 -223632517 -258728090#0 671642282 223632526"/>
    </vehicle>
    <vehicle id="veh127" depart="203.20" departLane="best" departPos="random" departSpeed="max">
        <route edges="-223632520#1 -223632525#0"/>
    </vehicle>
    <vehicle id="veh128" depart="204.80" departLane="best" departPos="random" departSpeed="max">
        <route edges="223632525#0 223632520#1 E1 -223632525#2 -223632525#0"/>
    </vehicle>
    <vehicle id="veh129" depart="206.40" departLane="best" departPos="random" departSpeed="max">
        <route edges="-E3 -E2 -649064895 649064896#1 -258728090#2 -258728090#0 671642282 223632526"/>
    </vehicle>
    <vehicle id="veh130" depart="208.00" departLane="best" departPos="random" departSpeed="max">
        <route edges="-649036317#3 223632520#2 E3 649040853#1 649040853#2"/>
    </vehicle>
    <vehicle id="veh131" depart="209.60" departLane="best" departPos="random" departSpeed="max">
        <route edges="223632517 -E3 -223632520#2 649036317#3"/>
    </vehicle>
    <vehicle id="veh132" depart="211.20" departLane="best" departPos="random" departSpeed="max">
        <route edges="-649040853#1 -E3 -223632520#2 649036317#3"/>
    </vehicle>
    <vehicle id="veh133" depart="212.80" departLane="best" departPos="random" departSpeed="max">
        <route edges="258728090#0 258728090#1 -649064896#1 E4"/>
    </vehicle>
    <vehicle id="veh134" depart="214.40" departLane="best" departPos="random" departSpeed="max">
        <route edges="223632520#0 223632525#1 -258728090#4 -E4 649064895 E2 -223632520#2"/>
    </vehicle>
    <vehicle id="veh135" depart="216.00" departLane="best" departPos="random" departSpeed="max">
        <route edges="-649036317#3 -223632520#1 223632525#1 -E1"/>
    </vehicle>
    <vehicle id="veh136" depart="217.60" departLane="best" departPos="random" departSpeed="max">
        <route edges="-671642282 258728090#0 223632517 -E3 -223632520#2"/>
    </vehicle>
    <vehicle id="veh137" depart="219.20" departLane="best" departPos="random" departSpeed="max">
        <route edges="-223632525#2 223632520#1 E1"/>
    </vehicle>
    <vehicle id="veh139" depart="222.40" departLane="best" departPos="random" departSpeed="max">
        <route edges="223632522 -649040853#1 -E3 -223632520#2 649036317#3"/>
    </vehicle>
    <vehicle id="veh140" depart="224.00" departLane="best" departPos="random" departSpeed="max">
        <route edges="-223632520#2 E1 -258728090#4 -258728090#3 -258728090#2 -258728090#0 671642282 223632526"/>
    </vehicle>
    <vehicle id="veh141" depart="225.60" departLane="best" departPos="random" departSpeed="max">
        <route edges="223632522 -649040853#1 -223632517"/>
    </vehicle>
    <vehicle id="veh143" depart="228.80" departLane="best" departPos="random" departSpeed="max">
        <route edges="223632522 -649040853#1 -E3 -223632520#2 649036317#3"/>
    </vehicle>
    <vehicle id="veh144" depart="230.40" departLane="best" departPos="random" departSpeed="max">
        <route edges="-144943776 -649040853#1 -223632517 -258728090#0 671642282"/>
    </vehicle>
    <vehicle id="veh145" depart="232.00" departLane="best" departPos="random" departSpeed="max">
        <route edges="223632525#1 -258728090#4 -E4 649064895 E2 E3 649040853#1 649040853#2"/>
    </vehicle>
    <vehicle id="veh146" depart="233.60" departLane="best" departPos="random" departSpeed="max">
        <route edges="-223632526 -671642282 258728090#0 223632517 -E3 -223632520#2 E1 -258728090#4"/>
    </vehicle>
    <vehicle id="veh147" depart="235.20" departLane="best" departPos="random" departSpeed="max">
        <route edges="-144943776 -649040853#1 -E3 -E2 -649064895 649064896#1 -258728090#2"/>
    </vehicle>
    <vehicle id="veh148" depart="236.80" departLane="best" departPos="random" departSpeed="max">
        <route edges="-258728090#2 223632517 -E3 -223632520#2 E1 -258728090#4"/>
    </vehicle>
    <vehicle id="veh149" depart="238.40" departLane="best" departPos="random" departSpeed="max">
        <route edges="E2 E3 -223632517 -258728090#0 671642282 223632526"/>
    </vehicle>
    <vehicle id="veh150" depart="240.00" departLane="best" departPos="random" departSpeed="max">
        <route edges="-649036317#3 E1 -258728090#4"/>
    </vehicle>
    <vehicle id="veh151" depart="241.60" departLane="best" departPos="random" departSpeed="max">
        <route edges="-223632526 -671642282 258728090#0 223632517 649040853#1 -223632522"/>
    </vehicle>
    <vehicle id="veh152" depart="243.20" departLane="best" departPos="random" departSpeed="max">
        <route edges="223632520#0 223632520#1 223632520#2 E3 649040853#1"/>
    </vehicle>
    <vehicle id="veh154" depart="246.40" departLane="best" departPos="random" departSpeed="max">
        <route edges="223632522 -649040853#1 -E3 -223632520#2 649036317#3"/>
    </vehicle>
    <vehicle id="veh155" depart="248.00" departLane="best" departPos="random" departSpeed="max">
        <route edges="223632522 -649040853#1 -E3 -E2 -649064895 649064895"/>
    </vehicle>
    <vehicle id="veh156" depart="249.60" departLane="best" departPos="random" departSpeed="max">
        <route edges="-223632526 -671642282 258728090#0 223632517 -E3 -223632520#2 649036317#3"/>
    </vehicle>
    <vehicle id="veh157" depart="251.20" departLane="best" departPos="random" departSpeed="max">
        <route edges="-144943776 -649040853#1 -E3"/>
    </vehicle>
    <vehicle id="veh158" depart="252.80" departLane="best" departPos="random" departSpeed="max">
        <route edges="223632520#0 223632525#1 -258728090#4 -258728090#3 -258728090#2 223632517 -E3"/>
    </vehicle>
    <vehicle id="veh159" depart="254.40" departLane="best" departPos="random" departSpeed="max">
        <route edges="-649064895 E4 258728090#4 -E1 649036317#3"/>
    </vehicle>
    <vehicle id="veh160" depart="256.00" departLane="best" departPos="random" departSpeed="max">
        <route edges="223632525#0 223632525#1 -E1 -223632520#1"/>
    </vehicle>
    <vehicle id="veh161" depart="257.60" departLane="best" departPos="random" departSpeed="max">
        <route edges="-E1 -223632520#1 -223632525#0"/>
    </vehicle>
    <vehicle id="veh163" depart="260.80" departLane="best" departPos="random" departSpeed="max">
        <route edges="-E1 -223632520#1 -223632525#0"/>
    </vehicle>
    <vehicle id="veh164" depart="262.40" departLane="best" departPos="random" departSpeed="max">
        <route edges="-649036317#3 -223632520#1 -223632520#0"/>
    </vehicle>
    <vehicle id="veh165" depart="264.00" departLane="best" departPos="random" departSpeed="max">
        <route edges="-258728090#2 223632517 -E3 -E2 -649064895 E4 258728090#4 -223632525#2"/>
    </vehicle>
    <vehicle id="veh166" depart="265.60" departLane="best" departPos="random" departSpeed="max">
        <route edges="E1 -223632525#2 -223632525#0"/>
    </vehicle>
    <vehicle id="veh167" depart="267.20" departLane="best" departPos="random" departSpeed="max">
        <route edges="-671642282 258728090#0 223632517 -E3 -223632520#2"/>
    </vehicle>
    <vehicle id="veh168" depart="268.80" departLane="best" departPos="random" departSpeed="max">
        <route edges="223632520#0 223632520#1 223632520#2 -E2 -649064895"/>
    </vehicle>