<?xml version="1.0" encoding="UTF-8"?>

<!-- generated on 2025-05-11 07:55:15.397969 by randomTrips.py v1_22_0+0002-63e50f52594
<configuration>
    <net-file value="E:/licenta/oras-mic/2025-05-08-13-35-40\osm.net.xml"/>
    <output-trip-file value="E:/licenta/oras-mic/2025-05-08-13-35-40\trips.trips.xml"/>
    <route-file value="E:/licenta/oras-mic/2025-05-08-13-35-40\generated_routes\routes_worker2_80bad52b.rou.xml"/>
    <prefix value="veh"/>
    <trip-attributes value="departLane=&quot;best&quot; departSpeed=&quot;max&quot; departPos=&quot;random&quot;"/>
    <fringe-factor value="2.5"/>
    <seed value="83156"/>
    <end value="600.0"/>
    <period value="1.81"/>
</configuration>
-->

<!-- generated on 2025-05-11 07:55:15 by Eclipse SUMO duarouter Version 1.22.0
<duarouterConfiguration xmlns:xsi="http://www.w3.org/2001/XMLSchema-instance" xsi:noNamespaceSchemaLocation="http://sumo.dlr.de/xsd/duarouterConfiguration.xsd">

    <input>
        <net-file value="E:/licenta/oras-mic/2025-05-08-13-35-40\osm.net.xml"/>
        <route-files value="E:/licenta/oras-mic/2025-05-08-13-35-40\trips.trips.xml"/>
    </input>

    <output>
        <output-file value="E:/licenta/oras-mic/2025-05-08-13-35-40\generated_routes\routes_worker2_80bad52b.rou.xml"/>
        <alternatives-output value="NUL"/>
    </output>

    <time>
        <begin value="0"/>
        <end value="600.0"/>
    </time>

    <report>
        <no-warnings value="true"/>
        <ignore-errors value="true"/>
        <no-step-log value="true"/>
    </report>

</duarouterConfiguration>
-->

<routes xmlns:xsi="http://www.w3.org/2001/XMLSchema-instance" xsi:noNamespaceSchemaLocation="http://sumo.dlr.de/xsd/routes_file.xsd">
    <vehicle id="veh0" depart="0.00" departLane="best" departPos="random" departSpeed="max">
        <route edges="-E3 -223632520#2 -223632520#1 -223632525#0"/>
    </vehicle>
    <vehicle id="veh1" depart="1.88" departLane="best" departPos="random" departSpeed="max">
        <route edges="258728090#0 258728090#1 -649064896#1 649064895 E2 E3"/>
    </vehicle>
    <vehicle id="veh2" depart="3.76" departLane="best" departPos="random" departSpeed="max">
        <route edges="E4 258728090#4 -E1 223632520#2"/>
    </vehicle>
    <vehicle id="veh3" depart="5.64" departLane="best" departPos="random" departSpeed="max">
        <route edges="223632522 -649040853#1"/>
    </vehicle>
    <vehicle id="veh4" depart="7.52" departLane="best" departPos="random" departSpeed="max">
        <route edges="-223632526 -671642282 258728090#0 258728090#1 -649064896#1 649064896#1 -258728090#2 -258728090#0 671642282"/>
    </vehicle>
    <vehicle id="veh5" depart="9.40" departLane="best" departPos="random" departSpeed="max">
        <route edges="223632520#2 -E2 -649064895 E4 -258728090#3"/>
    </vehicle>
    <vehicle id="veh6" depart="11.28" departLane="best" departPos="random" departSpeed="max">
        <route edges="-144943776 -649040853#1 -E3 -E2 -649064895 649064895"/>
    </vehicle>
    <vehicle id="veh7" depart="13.16" departLane="best" departPos="random" departSpeed="max">
        <route edges="649064895 E2 E3 -223632517 -258728090#0 671642282 223632526"/>
    </vehicle>
    <vehicle id="veh8" depart="15.04" departLane="best" departPos="random" departSpeed="max">
        <route edges="223632522 649040853#2"/>
    </vehicle>
    <vehicle id="veh9" depart="16.92" departLane="best" departPos="random" departSpeed="max">
        <route edges="223632520#1 223632520#2 E3 -223632517 -258728090#0 671642282 223632526"/>
    </vehicle>
    <vehicle id="veh10" depart="18.80" departLane="best" departPos="random" departSpeed="max">
        <route edges="223632520#0 223632520#1 223632520#2 E3 649040853#1 -223632522"/>
    </vehicle>
    <vehicle id="veh11" depart="20.68" departLane="best" departPos="random" departSpeed="max">
        <route edges="-258728090#4 -E4"/>
    </vehicle>
    <vehicle id="veh12" depart="22.56" departLane="best" departPos="random" departSpeed="max">
        <route edges="-223632520#2 E1 -258728090#4 -E4 649064895 E2 E3 649040853#1 649040853#2"/>
    </vehicle>
    <vehicle id="veh13" depart="24.44" departLane="best" departPos="random" departSpeed="max">
        <route edges="-223632517 258728090#1 -649064896#1 649064895 E2"/>
    </vehicle>
    <vehicle id="veh14" depart="26.32" departLane="best" departPos="random" departSpeed="max">
        <route edges="-223632520#2 E1 -223632525#2"/>
    </vehicle>
    <vehicle id="veh15" depart="28.20" departLane="best" departPos="random" departSpeed="max">
        <route edges="223632525#1 -258728090#4 -E4 649064895 E2 E3 649040853#1"/>
    </vehicle>
    <vehicle id="veh16" depart="30.08" departLane="best" departPos="random" departSpeed="max">
        <route edges="223632525#1 -258728090#4 -E4 649064895 E2 E3 649040853#1 -223632522"/>
    </vehicle>
    <vehicle id="veh17" depart="31.96" departLane="best" departPos="random" departSpeed="max">
        <route edges="223632520#0 223632525#1 -258728090#4 -E4 649064895 E2"/>
    </vehicle>
    <vehicle id="veh19" depart="35.72" departLane="best" departPos="random" departSpeed="max">
        <route edges="-671642282 258728090#0 223632517 -E3 -223632520#2 -223632520#1 -223632520#0"/>
    </vehicle>
    <vehicle id="veh20" depart="37.60" departLane="best" departPos="random" departSpeed="max">
        <route edges="223632525#0 223632525#1"/>
    </vehicle>
    <vehicle id="veh21" depart="39.48" departLane="best" departPos="random" departSpeed="max">
        <route edges="223632522 -649040853#1 -E3 -E2 -649064895 649064896#1 -258728090#2"/>
    </vehicle>
    <vehicle id="veh22" depart="41.36" departLane="best" departPos="random" departSpeed="max">
        <route edges="223632517 -E3"/>
    </vehicle>
    <vehicle id="veh23" depart="43.24" departLane="best" departPos="random" departSpeed="max">
        <route edges="-223632520#1 223632525#1 -258728090#4 258728090#4"/>
    </vehicle>
    <vehicle id="veh24" depart="45.12" departLane="best" departPos="random" departSpeed="max">
        <route edges="258728090#3 258728090#4 -223632525#2 -223632520#0"/>
    </vehicle>
    <vehicle id="veh25" depart="47.00" departLane="best" departPos="random" departSpeed="max">
        <route edges="223632525#0 223632520#1 E1 -223632525#2 -223632525#0"/>
    </vehicle>
    <vehicle id="veh26" depart="48.88" departLane="best" departPos="random" departSpeed="max">
        <route edges="-E4 649064895 E2 E3 649040853#1 649040853#2"/>
    </vehicle>
    <vehicle id="veh27" depart="50.76" departLane="best" departPos="random" departSpeed="max">
        <route edges="-223632517 -258728090#0 671642282 223632526"/>
    </vehicle>
    <vehicle id="veh28" depart="52.64" departLane="best" departPos="random" departSpeed="max">
        <route edges="258728090#0 258728090#1 258728090#3 258728090#4 -E1"/>
    </vehicle>
    <vehicle id="veh29" depart="54.52" departLane="best" departPos="random" departSpeed="max">
        <route edges="258728090#4 -223632525#2 223632520#1 E1 -258728090#4 -258728090#3"/>
    </vehicle>
    <vehicle id="veh30" depart="56.40" departLane="best" departPos="random" departSpeed="max">
        <route edges="-E1 223632520#2 E3 649040853#1 649040853#2"/>
    </vehicle>
    <vehicle id="veh31" depart="58.28" departLane="best" departPos="random" departSpeed="max">
        <route edges="-649040853#1 -E3 -223632520#2 -223632520#1 -223632525#0"/>
    </vehicle>
    <vehicle id="veh32" depart="60.16" departLane="best" departPos="random" departSpeed="max">
        <route edges="E1 -258728090#4 -E4 649064895 E2 E3 -223632517"/>
    </vehicle>
    <vehicle id="veh33" depart="62.04" departLane="best" departPos="random" departSpeed="max">
        <route edges="-223632526 -671642282 258728090#0 258728090#1 -649064896#1 649064896#1 -258728090#2 -258728090#0 671642282 223632526"/>
    </vehicle>
    <vehicle id="veh34" depart="63.92" departLane="best" departPos="random" departSpeed="max">
        <route edges="-144943776 -649040853#1 -223632517"/>
    </vehicle>
    <vehicle id="veh35" depart="65.80" departLane="best" departPos="random" departSpeed="max">
        <route edges="223632520#1 649036317#3"/>
    </vehicle>
    <vehicle id="veh36" depart="67.68" departLane="best" departPos="random" departSpeed="max">
        <route edges="258728090#3 -E4 649064895 E2 E3 649040853#1"/>
    </vehicle>
    <vehicle id="veh37" depart="69.56" departLane="best" departPos="random" departSpeed="max">
        <route edges="-E4 649064896#1 -258728090#2 223632517 -E3"/>
    </vehicle>
    <vehicle id="veh38" depart="71.44" departLane="best" departPos="random" departSpeed="max">
        <route edges="649064896#1 -258728090#2 -258728090#0 671642282 223632526"/>
    </vehicle>
    <vehicle id="veh39" depart="73.32" departLane="best" departPos="random" departSpeed="max">
        <route edges="-223632526 -671642282 258728090#0 258728090#1 -649064896#1 649064896#1 -258728090#2 -258728090#0 671642282 223632526"/>
    </vehicle>
    <vehicle id="veh40" depart="75.20" departLane="best" departPos="random" departSpeed="max">
        <route edges="-223632525#2 223632520#1 223632520#2 E3 649040853#1 649040853#2"/>
    </vehicle>
    <vehicle id="veh41" depart="77.08" departLane="best" departPos="random" departSpeed="max">
        <route edges="-649036317#3 E1 -223632525#2"/>
    </vehicle>
    <vehicle id="veh42" depart="78.96" departLane="best" departPos="random" departSpeed="max">
        <route edges="-649064895 649064895 E2 E3 649040853#1 -223632522"/>
    </vehicle>
    <vehicle id="veh43" depart="80.84" departLane="best" departPos="random" departSpeed="max">
        <route edges="223632520#0 223632525#1 -E1 -223632520#1"/>
    </vehicle>
    <vehicle id="veh44" depart="82.72" departLane="best" departPos="random" departSpeed="max">
        <route edges="-E4 649064895 E2 E3"/>
    </vehicle>
    <vehicle id="veh45" depart="84.60" departLane="best" departPos="random" departSpeed="max">
        <route edges="649064895 -649064895 649064896#1 -258728090#2 223632517"/>
    </vehicle>
    <vehicle id="veh46" depart="86.48" departLane="best" departPos="random" departSpeed="max">
        <route edges="-223632526 -671642282 258728090#0 258728090#1 258728090#3 -E4"/>
    </vehicle>
    <vehicle id="veh47" depart="88.36" departLane="best" departPos="random" departSpeed="max">
        <route edges="-223632517 258728090#1 -649064896#1 649064895 E2 E3"/>
    </vehicle>
    <vehicle id="veh48" depart="90.24" departLane="best" departPos="random" departSpeed="max">
        <route edges="649064896#1 -258728090#2 -258728090#0"/>
    </vehicle>
    <vehicle id="veh49" depart="92.12" departLane="best" departPos="random" departSpeed="max">
        <route edges="-E1 -223632520#1 223632525#1"/>
    </vehicle>
    <vehicle id="veh50" depart="94.00" departLane="best" departPos="random" departSpeed="max">
        <route edges="223632520#2 -E2 -649064895 649064895 E2"/>
    </vehicle>
    <vehicle id="veh51" depart="95.88" departLane="best" departPos="random" departSpeed="max">
        <route edges="223632522 -649040853#1 -E3 -223632520#2 -223632520#1 -223632520#0"/>
    </vehicle>
    <vehicle id="veh52" depart="97.76" departLane="best" departPos="random" departSpeed="max">
        <route edges="223632522 -649040853#1 -E3 -E2 -649064895"/>
    </vehicle>
    <vehicle id="veh53" depart="99.64" departLane="best" departPos="random" departSpeed="max">
        <route edges="223632525#0 223632525#1 -258728090#4 258728090#4"/>
    </vehicle>
    <vehicle id="veh54" depart="101.52" departLane="best" departPos="random" departSpeed="max">
        <route edges="-223632520#2 E1 -223632525#2 223632520#1 223632520#2"/>
    </vehicle>
    <vehicle id="veh55" depart="103.40" departLane="best" departPos="random" departSpeed="max">
        <route edges="223632522 649040853#2"/>
    </vehicle>
    <vehicle id="veh56" depart="105.28" departLane="best" departPos="random" departSpeed="max">
        <route edges="223632520#1 E1 -258728090#4 258728090#4"/>
    </vehicle>
    <vehicle id="veh57" depart="107.16" departLane="best" departPos="random" departSpeed="max">
        <route edges="-649064896#1 E4 258728090#4 -E1 223632520#2"/>
    </vehicle>
    <vehicle id="veh58" depart="109.04" departLane="best" departPos="random" departSpeed="max">
        <route edges="-258728090#3 -649064896#1 E4 258728090#4 -E1"/>
    </vehicle>
    <vehicle id="veh59" depart="110.92" departLane="best" departPos="random" departSpeed="max">
        <route edges="-649040853#1 -E3 -E2 -649064895 649064895 E2 E3 649040853#1 -223632522"/>
    </vehicle>
    <vehicle id="veh60" depart="112.80" departLane="best" departPos="random" departSpeed="max">
        <route edges="-649036317#3 E1 -258728090#4 -258728090#3 -258728090#2"/>
    </vehicle>
    <vehicle id="veh61" depart="114.68" departLane="best" departPos="random" departSpeed="max">
        <route edges="-223632526 -671642282 258728090#0 258728090#1 -649064896#1 649064895 E2 E3"/>
    </vehicle>
    <vehicle id="veh62" depart="116.56" departLane="best" departPos="random" departSpeed="max">
        <route edges="649064895 E2 E3 -223632517 -258728090#0 671642282 223632526"/>
    </vehicle>
    <vehicle id="veh63" depart="118.44" departLane="best" departPos="random" departSpeed="max">
        <route edges="-E2 -649064895 649064896#1 -258728090#2"/>
    </vehicle>
    <vehicle id="veh64" depart="120.32" departLane="best" departPos="random" departSpeed="max">
        <route edges="223632522 -649040853#1 -E3 -E2 -649064895 649064896#1 -258728090#2 223632517"/>
    </vehicle>
    <vehicle id="veh65" depart="122.20" departLane="best" departPos="random" departSpeed="max">
        <route edges="223632517 -E3 -E2 -649064895 E4 258728090#4 -E1 223632520#2"/>
    </vehicle>
    <vehicle id="veh66" depart="124.08" departLane="best" departPos="random" departSpeed="max">
        <route edges="E4 -258728090#3"/>
    </vehicle>
    <vehicle id="veh68" depart="127.84" departLane="best" departPos="random" departSpeed="max">
        <route edges="223632520#2 -E2 -649064895 E4 258728090#4 -223632525#2 223632520#1"/>
    </vehicle>
    <vehicle id="veh69" depart="129.72" departLane="best" departPos="random" departSpeed="max">
        <route edges="223632522 -649040853#1 -E3 -E2 -649064895 E4 258728090#4 -E1 223632520#2"/>
    </vehicle>
    <vehicle id="veh70" depart="131.60" departLane="best" departPos="random" departSpeed="max">
        <route edges="649064896#1 258728090#3 -E4 649064895 E2 E3 649040853#1 649040853#2"/>
    </vehicle>
    <vehicle id="veh71" depart="133.48" departLane="best" departPos="random" departSpeed="max">
        <route edges="-144943776 -223632522"/>
    </vehicle>
    <vehicle id="veh72" depart="135.36" departLane="best" departPos="random" departSpeed="max">
        <route edges="258728090#4 -223632525#2 223632520#1 E1 -258728090#4"/>
    </vehicle>
    <vehicle id="veh73" depart="137.24" departLane="best" departPos="random" departSpeed="max">
        <route edges="258728090#0 223632517 649040853#1 649040853#2"/>
    </vehicle>
    <vehicle id="veh74" depart="139.12" departLane="best" departPos="random" departSpeed="max">
        <route edges="223632520#0 223632520#1 223632520#2 E3 -223632517 258728090#1"/>
    </vehicle>
    <vehicle id="veh76" depart="142.88" departLane="best" departPos="random" departSpeed="max">
        <route edges="223632517 -E3 -E2 -649064895 E4 258728090#4 -E1 223632520#2"/>
    </vehicle>
    <vehicle id="veh77" depart="144.76" departLane="best" departPos="random" departSpeed="max">
        <route edges="258728090#4 -223632525#2 223632520#1 E1 -258728090#4 -E4"/>
    </vehicle>
    <vehicle id="veh79" depart="148.52" departLane="best" departPos="random" departSpeed="max">
        <route edges="-E2 -649064895 E4 258728090#4 -223632525#2 -223632525#0"/>
    </vehicle>
    <vehicle id="veh80" depart="150.40" departLane="best" departPos="random" departSpeed="max">
        <route edges="-258728090#3 -649064896#1 E4 258728090#4 -223632525#2 -223632520#0"/>
    </vehicle>
    <vehicle id="veh81" depart="152.28" departLane="best" departPos="random" departSpeed="max">
        <route edges="223632525#0 223632525#1 -258728090#4 -258728090#3 -258728090#2 223632517"/>
    </vehicle>
    <vehicle id="veh82" depart="154.16" departLane="best" departPos="random" departSpeed="max">
        <route edges="223632525#0 223632525#1 -258728090#4 -258728090#3 -649064896#1"/>
    </vehicle>
    <vehicle id="veh83" depart="156.04" departLane="best" departPos="random" departSpeed="max">
        <route edges="-223632526 -671642282 258728090#0 258728090#1 -649064896#1 649064896#1 -258728090#2 -258728090#0 671642282 223632526"/>
    </vehicle>
    <vehicle id="veh84" depart="157.92" departLane="best" departPos="random" departSpeed="max">
        <route edges="649064895 -649064895 649064896#1 258728090#3"/>
    </vehicle>
    <vehicle id="veh85" depart="159.80" departLane="best" departPos="random" departSpeed="max">
        <route edges="-223632520#1 223632525#1 -258728090#4 -258728090#3 -649064896#1 E4"/>
    </vehicle>
    <vehicle id="veh86" depart="161.68" departLane="best" departPos="random" departSpeed="max">
        <route edges="-649036317#3 E1 -258728090#4 258728090#4"/>
    </vehicle>
    <vehicle id="veh87" depart="163.56" departLane="best" departPos="random" departSpeed="max">
        <route edges="E3 -223632517 258728090#1 -649064896#1 649064895 E2"/>
    </vehicle>
    <vehicle id="veh88" depart="165.44" departLane="best" departPos="random" departSpeed="max">
        <route edges="649040853#1 649040853#2"/>
    </vehicle>
    <vehicle id="veh89" depart="167.32" departLane="best" departPos="random" departSpeed="max">
        <route edges="223632522 -649040853#1 -223632517 -258728090#0 671642282 223632526"/>
    </vehicle>
    <vehicle id="veh90" depart="169.20" departLane="best" departPos="random" departSpeed="max">
        <route edges="258728090#3 -E4 649064895 E2 E3 649040853#1 -223632522"/>
    </vehicle>
    <vehicle id="veh91" depart="171.08" departLane="best" departPos="random" departSpeed="max">
        <route edges="-671642282 258728090#0 258728090#1 -649064896#1 649064896#1 -258728090#2 -258728090#0"/>
    </vehicle>
    <vehicle id="veh92" depart="172.96" departLane="best" departPos="random" departSpeed="max">
        <route edges="E3 -223632517 -258728090#0 671642282 223632526"/>
    </vehicle>
    <vehicle id="veh93" depart="174.84" departLane="best" departPos="random" departSpeed="max">
        <route edges="E1 -223632525#2 -223632525#0"/>
    </vehicle>
    <vehicle id="veh94" depart="176.72" departLane="best" departPos="random" departSpeed="max">
        <route edges="-258728090#2 -258728090#0 671642282 223632526"/>
    </vehicle>
    <vehicle id="veh95" depart="178.60" departLane="best" departPos="random" departSpeed="max">
        <route edges="223632520#2 -E2 -649064895 649064895 E2 -223632520#2 E1 -258728090#4"/>
    </vehicle>
    <vehicle id="veh96" depart="180.48" departLane="best" departPos="random" departSpeed="max">
        <route edges="E2 -223632520#2 649036317#3"/>
    </vehicle>
    <vehicle id="veh97" depart="182.36" departLane="best" departPos="random" departSpeed="max">
        <route edges="-649064895 E4 258728090#4 -223632525#2 -223632525#0"/>
    </vehicle>
    <vehicle id="veh98" depart="184.24" departLane="best" departPos="random" departSpeed="max">
        <route edges="-144943776 -649040853#1 -E3 -223632520#2 -223632520#1 -223632525#0"/>
    </vehicle>
    <vehicle id="veh99" depart="186.12" departLane="best" departPos="random" departSpeed="max">
        <route edges="E4 258728090#4 -223632525#2 223632520#1"/>
    </vehicle>
    <vehicle id="veh100" depart="188.00" departLane="best" departPos="random" departSpeed="max">
        <route edges="E4 258728090#4 -E1 223632520#2 E3 649040853#1 649040853#2"/>
    </vehicle>
    <vehicle id="veh101" depart="189.88" departLane="best" departPos="random" departSpeed="max">
        <route edges="-649064895 E4 258728090#4 -E1 649036317#3"/>
    </vehicle>
    <vehicle id="veh102" depart="191.76" departLane="best" departPos="random" departSpeed="max">
        <route edges="258728090#3 258728090#4 -E1"/>
    </vehicle>
    <vehicle id="veh103" depart="193.64" departLane="best" departPos="random" departSpeed="max">
        <route edges="-E2 -649064895 649064895 E2 -223632520#2 E1"/>
    </vehicle>
    <vehicle id="veh104" depart="195.52" departLane="best" departPos="random" departSpeed="max">
        <route edges="E3 -223632517 258728090#1 258728090#3 258728090#4 -E1 649036317#3"/>
    </vehicle>
    <vehicle id="veh105" depart="197.40" departLane="best" departPos="random" departSpeed="max">
        <route edges="258728090#1 -649064896#1 649064895 E2 E3 649040853#1 649040853#2"/>
    </vehicle>
    <vehicle id="veh106" depart="199.28" departLane="best" departPos="random" departSpeed="max">
        <route edges="-E2 -649064895 649064896#1 -258728090#2 223632517 -E3"/>
    </vehicle>
    <vehicle id="veh107" depart="201.16" departLane="best" departPos="random" departSpeed="max">
        <route edges="223632522 -649040853#1 -E3 -223632520#2 -223632520#1 -223632525#0"/>
    </vehicle>
    <vehicle id="veh109" depart="204.92" departLane="best" departPos="random" departSpeed="max">
        <route edges="223632520#0 223632520#1 649036317#3"/>
    </vehicle>
    <vehicle id="veh110" depart="206.80" departLane="best" departPos="random" departSpeed="max">
        <route edges="-258728090#3 -258728090#2 -258728090#0 671642282"/>
    </vehicle>
    <vehicle id="veh111" depart="208.68" departLane="best" departPos="random" departSpeed="max">
        <route edges="258728090#0 223632517 -E3 -223632520#2 -223632520#1 -223632520#0"/>
    </vehicle>
    <vehicle id="veh112" depart="210.56" departLane="best" departPos="random" departSpeed="max">
        <route edges="-144943776 -649040853#1 -E3 -223632520#2 649036317#3"/>
    </vehicle>
    <vehicle id="veh113" depart="212.44" departLane="best" departPos="random" departSpeed="max">
        <route edges="223632525#1 -258728090#4 -258728090#3 -258728090#2 -258728090#0"/>
    </vehicle>
    <vehicle id="veh114" depart="214.32" departLane="best" departPos="random" departSpeed="max">
        <route edges="-144943776 -649040853#1 -E3 -E2 -649064895 649064896#1"/>
    </vehicle>
    <vehicle id="veh115" depart="216.20" departLane="best" departPos="random" departSpeed="max">
        <route edges="223632525#0 223632520#1 223632520#2 -E2"/>
    </vehicle>
    <vehicle id="veh116" depart="218.08" departLane="best" departPos="random" departSpeed="max">
        <route edges="223632517 -E3 -E2 -649064895 649064896#1 -258728090#2 -258728090#0"/>
    </vehicle>
    <vehicle id="veh117" depart="219.96" departLane="best" departPos="random" departSpeed="max">
        <route edges="-223632520#1 223632525#1 -E1 223632520#2 -E2"/>
    </vehicle>
    <vehicle id="veh118" depart="221.84" departLane="best" departPos="random" departSpeed="max">
        <route edges="223632520#2 -E2 -649064895 E4 258728090#4 -223632525#2 -223632525#0"/>
    </vehicle>
    <vehicle id="veh119" depart="223.72" departLane="best" departPos="random" departSpeed="max">
        <route edges="-649036317#3 -223632520#1 -223632525#0"/>
    </vehicle>
    <vehicle id="veh121" depart="227.48" departLane="best" departPos="random" departSpeed="max">
        <route edges="223632522 -649040853#1 -E3 -E2 -649064895 E4 258728090#4 -E1 223632520#2"/>
    </vehicle>
    <vehicle id="veh122" depart="229.36" departLane="best" departPos="random" departSpeed="max">
        <route edges="223632525#0 223632520#1 223632520#2 E3 649040853#1 649040853#2"/>
    </vehicle>
    <vehicle id="veh123" depart="231.24" departLane="best" departPos="random" departSpeed="max">
        <route edges="-258728090#3 -649064896#1 E4 258728090#4 -223632525#2 -223632525#0"/>
    </vehicle>
    <vehicle id="veh124" depart="233.12" departLane="best" departPos="random" departSpeed="max">
        <route edges="-144943776 -649040853#1 -E3 -E2 -649064895 649064895"/>
    </vehicle>
    <vehicle id="veh125" depart="235.00" departLane="best" departPos="random" departSpeed="max">
        <route edges="-258728090#2 223632517 -E3 -E2 -649064895 E4"/>
    </vehicle>
    <vehicle id="veh126" depart="236.88" departLane="best" departPos="random" departSpeed="max">
        <route edges="223632520#0 223632520#1 223632520#2 E3 649040853#1 649040853#2"/>
    </vehicle>
    <vehicle id="veh127" depart="238.76" departLane="best" departPos="random" departSpeed="max">
        <route edges="-671642282 258728090#0 223632517 -E3 -223632520#2 649036317#3"/>
    </vehicle>
    <vehicle id="veh128" depart="240.64" departLane="best" departPos="random" departSpeed="max">
        <route edges="-671642282 258728090#0 258728090#1 -649064896#1 649064895 E2 E3 -223632517"/>
    </vehicle>
    <vehicle id="veh129" depart="242.52" departLane="best" departPos="random" departSpeed="max">
        <route edges="-223632517 258728090#1 -649064896#1 649064895 E2 -223632520#2 E1 -258728090#4"/>
    </vehicle>
    <vehicle id="veh130" depart="244.40" departLane="best" departPos="random" departSpeed="max">
        <route edges="-223632526 -671642282 258728090#0 258728090#1 258728090#3 258728090#4"/>
    </vehicle>
    <vehicle id="veh131" depart="246.28" departLane="best" departPos="random" departSpeed="max">
        <route edges="-649036317#3 -223632520#1 -223632520#0"/>
    </vehicle>
    <vehicle id="veh132" depart="248.16" departLane="best" departPos="random" departSpeed="max">
        <route edges="223632520#2 E3 649040853#1 649040853#2"/>
    </vehicle>
    <vehicle id="veh134" depart="251.92" departLane="best" departPos="random" departSpeed="max">
        <route edges="-649036317#3 223632520#2 E3 -223632517 -258728090#0 671642282 223632526"/>
    </vehicle>
    <vehicle id="veh135" depart="253.80" departLane="best" departPos="random" departSpeed="max">
        <route edges="223632520#2 -E2 -649064895 E4 258728090#4 -E1 649036317#3"/>
    </vehicle>
    <vehicle id="veh136" depart="255.68" departLane="best" departPos="random" departSpeed="max">
        <route edges="223632520#0 223632520#1 223632520#2 E3 -223632517 -258728090#0 671642282 223632526"/>
    </vehicle>
    <vehicle id="veh137" depart="257.56" departLane="best" departPos="random" departSpeed="max">
        <route edges="-649036317#3 E1 -258728090#4 -258728090#3 -258728090#2 223632517"/>
    </vehicle>
    <vehicle id="veh139" depart="261.32" departLane="best" departPos="random" departSpeed="max">
        <route edges="223632525#1 -E1 -223632520#1 -223632525#0"/>
    </vehicle>
    <vehicle id="veh140" depart="263.20" departLane="best" departPos="random" departSpeed="max">
        <route edges="223632525#1 -E1 -223632520#1 -223632525#0"/>
    </vehicle>
    <vehicle id="veh141" depart="265.08" departLane="best" departPos="random" departSpeed="max">
        <route edges="-671642282 258728090#0 223632517 649040853#1 649040853#2"/>
    </vehicle>
    <vehicle id="veh142" depart="266.96" departLane="best" departPos="random" departSpeed="max">
        <route edges="258728090#3 -E4 649064895 E2 E3 649040853#1 649040853#2"/>
    </vehicle>
    <vehicle id="veh143" depart="268.84" departLane="best" departPos="random" departSpeed="max">
        <route edges="223632517 -E3 -E2 -649064895 649064895 E2 E3"/>
    </vehicle>
    <vehicle id="veh144" depart="270.72" departLane="best" departPos="random" departSpeed="max">
        <route edges="649064895 E2"/>
    </vehicle>
    <vehicle id="veh145" depart="272.60" departLane="best" departPos="random" departSpeed="max">
        <route edges="-649036317#3 223632520#2 E3 -223632517 -258728090#0 671642282 223632526"/>
    </vehicle>
    <vehicle id="veh146" depart="274.48" departLane="best" departPos="random" departSpeed="max">
        <route edges="-649064896#1 649064896#1 258728090#3 -E4"/>
    </vehicle>
    <vehicle id="veh147" depart="276.36" departLane="best" departPos="random" departSpeed="max">
        <route edges="-E1"/>
    </vehicle>
    <vehicle id="veh148" depart="278.24" departLane="best" departPos="random" departSpeed="max">
        <route edges="223632520#0 223632520#1 223632520#2 E3 -223632517 -258728090#0 671642282"/>
    </vehicle>
    <vehicle id="veh149" depart="280.12" departLane="best" departPos="random" departSpeed="max">
        <route edges="-E2 -649064895 E4 258728090#4 -223632525#2 -223632525#0"/>
    </vehicle>
    <vehicle id="veh150" depart="282.00" departLane="best" departPos="random" departSpeed="max">
        <route edges="223632522 -649040853#1 -E3 -E2 -649064895 649064895 E2 E3 649040853#1 -223632522"/>
    </vehicle>
    <vehicle id="veh151" depart="283.88" departLane="best" departPos="random" departSpeed="max">
        <route edges="223632520#0 223632520#1 223632520#2 E3 649040853#1 -223632522"/>
    </vehicle>
    <vehicle id="veh152" depart="285.76" departLane="best" departPos="random" departSpeed="max">
        <route edges="-E3 -223632520#2 -223632520#1 -223632525#0"/>
    </vehicle>
    <vehicle id="veh154" depart="289.52" departLane="best" departPos="random" departSpeed="max">
        <route edges="-649064895 E4 258728090#4 -223632525#2 -223632520#0"/>
    </vehicle>
    <vehicle id="veh155" depart="291.40" departLane="best" departPos="random" departSpeed="max">
        <route edges="223632525#1 -258728090#4 -E4 649064895 E2 E3 649040853#1 -223632522"/>
    </vehicle>
    <vehicle id="veh156" depart="293.28" departLane="best" departPos="random" departSpeed="max">
        <route edges="-144943776 -649040853#1 -223632517 -258728090#0 671642282 223632526"/>
    </vehicle>
    <vehicle id="veh157" depart="295.16" departLane="best" departPos="random" departSpeed="max">
        <route edges="223632525#0 223632520#1 223632520#2 E3 649040853#1 -223632522"/>
    </vehicle>